[TITLE]
;;Project Title/Notes

[OPTIONS]
;;Option             Value
FLOW_UNITS           CFS
INFILTRATION         CURVE_NUMBER
FLOW_ROUTING         DYNWAVE
LINK_OFFSETS         DEPTH
MIN_SLOPE            0
ALLOW_PONDING        YES
SKIP_STEADY_STATE    NO

START_DATE           12/11/2015
START_TIME           00:00:00
REPORT_START_DATE    12/11/2015
REPORT_START_TIME    00:00:00
END_DATE             12/11/2015
END_TIME             10:00:00
SWEEP_START          01/01
SWEEP_END            12/31
DRY_DAYS             0
REPORT_STEP          00:05:00
WET_STEP             00:05:00
DRY_STEP             00:05:00
ROUTING_STEP         0:00:12 

INERTIAL_DAMPING     FULL
NORMAL_FLOW_LIMITED  FROUDE
FORCE_MAIN_EQUATION  H-W
VARIABLE_STEP        0.50
LENGTHENING_STEP     0
MIN_SURFAREA         12.557
MAX_TRIALS           19
HEAD_TOLERANCE       0.005
SYS_FLOW_TOL         5
LAT_FLOW_TOL         5
MINIMUM_STEP         0.5
THREADS              1

[EVAPORATION]
;;Data Source    Parameters
;;-------------- ----------------
CONSTANT         0.0
DRY_ONLY         NO

[RAINGAGES]
;;Name           Format    Interval SCF      Source    
;;-------------- --------- ------ ------ ----------
RainGage1        CUMULATIVE 0:15     1.0      TIMESERIES SCS-50YR-24HR-15MIN

[JUNCTIONS]
;;Name           Elevation  MaxDepth   InitDepth  SurDepth   Aponded   
;;-------------- ---------- ---------- ---------- ---------- ----------
END-OF-PIPES     3164       6          4          0          10890     
;M32A and Junction Box M33 and M34 on 1994 drawing sheet 79
MH-33            3164.48    27.24      3.55       0          0         
;M-32 on 1994 Drawing Sheet 79
MH_5452          3165.43    39.17      2.55       0          0         
;M31 on 1994 drawing sheet 77
MH_5447          3166.61    40.51      1.38       0          0         
;M28 on 2004 drawing sheet 596
MH-MF28          3170.10    30.4       0          0          0         
IN-F85           3194.15    5          0          0          10890     
IN-F84           3195.89    5.50       0          0          10890     
IN-F83           3196.15    3          0          0          10890     
EXIST_BEND       3170.20    35.08      0          0          0         
M-26             3170.70    36.44      0          0          0         
MF14             3171.66    36.09      0          0          0         
BEND-BF23        3172.09    29.41      0          0          10890     
BEND-BF22        3173.02    32.98      0          0          10890     
JF34             3174.02    17.98      0          0          0         
JF35             3179.37    12.13      0          0          0         
;INCLUDES JBF31
IN-F81           3182.27    19.25      0          0          10890     
IN-F82           3187.56    3          0          0          10890     
;invert + 15.38 is pgl.
MF13             3174.61    35.39      0          0          0         
IN-F80           3179.37    25.69      0          0          10890     
BEND_G           3204.76    6.24       0          0          0         
JG2              3200.06    9.94       0          0          0         
;invert + 5.99
JBG2             3204.51    12         0          0          0         
;invert + 9
JG3              3201.3     12         0          0          0         
IN-E1            3203.11    5.17       0          0          10890     
IN-E2            3201.41    5.67       0          0          10890     
IN-E3            3201.3     5.67       0          0          10890     
IN-E4            3200.48    6.17       0          0          10890     
IN-E5            3199.87    6.67       0          0          10890     
IN-E6            3199.25    7.17       0          0          10890     
IN-E7            3198.09    8.17       0          0          10890     
JE1              3196.75    9          0          0          0         
IN-E8            3200.52    5.67       0          0          10890     
IN-E9            3193.62    12.46      0          0          10890     
IN-E10           3194.07    11.50      0          0          10890     
IN-E11           3194.36    10.74      0          0          10890     
IN-E12           3194.69    9.89       0          0          10890     
IN-E13           3195.17    8.67       0          0          10890     
IN-E14           3196.74    7.17       0          0          10890     
IN-E15           3197.31    6.67       0          0          10890     
IN-F76           3184.36    20.35      0          0          10890     
JF33             3177.75    18         0          0          0         
IN-F74           3185.16    8.5        0          0          10890     
JF32             3179.19    21.81      0          0          0         
IN-F72           3199.47    4          0          0          10890     
JF31             3179.55    22.45      0          0          0         
IN-F71           3197.4     3          0          0          10890     
JF30             3180.31    23.69      0          0          0         
IN-F70           3194.36    7          0          0          10890     
IN-F70B          3194.70    4          0          0          10890     
MF11             3181.61    26.18      0          0          0         
IN-F69           3200.85    3          0          0          10890     
IN-H1            3212.65    4.67       0          0          10890     
IN-H2            3212.17    4.67       0          0          10890     
IN-H3            3199.58    16.67      0          0          10890     
IN-H4            3213.10    4          0          0          10890     
JH1              3207.48    7.72       0          0          0         
IN-H5            3209.12    7          0          0          10890     
IN-H6            3207.59    8.17       0          0          10890     
IN-H7            3208.43    6.67       0          0          10890     
IN-H8            3208.67    6.17       0          0          10890     
IN-H9            3209.42    5.17       0          0          10890     
IN-H10           3209.69    4.67       0          0          10890     
JF29             3183.39    27.61      0          0          0         
IN-F68           3202.56    3          0          0          10890     
JF28             3183.63    26.87      0          0          0         
IN-F67           3203.5     4          0          0          10890     
MF10             3184.01    25.20      0          0          0         
JF27             3201.24    6.76       0          0          0         
IN-F66           3202.23    3.5        0          0          10890     
BEND_BF20        3204.87    7.38       0          0          0         
BEND_BF21        3210.53    7.47       0          0          0         
IN-F64           3211.03    7.17       0          0          10890     
IN-F65           3212.37    5.67       0          0          10890     
JF26             3185.15    20.85      0          0          0         
IN-F61           3191.05    13.03      0          0          10890     
BEND_BF18        3194.11    11.89      0          0          0         
BEND_BF19        3194.84    6.32       0          0          0         
IN-F62           3195.16    6          0          0          10890     
IN-F63           3196.20    17.01      0          0          10890     
JF25             3185.44    19.81      0          0          0         
IN-F60           3196.01    5          0          0          10890     
IN-F59           3196.19    16.01      0          0          10890     
BEND_BF17        3210.24    19.76      0          0          0         
BEND_BF16        3217.24    5.86       0          0          0         
IN-F58           3217.38    5.67       0          0          10890     
IN-F57A          3217.88    5.17       0          0          10890     
IN-F57B          3217.88    5.17       0          0          10890     
JF24             3185.69    20.31      0          0          0         
IN-F56           3192.19    11.82      0          0          10890     
MF9              3186.11    15.05      0          0          0         
IN-F55           3197.89    4          0          0          10890     
IN-F63B          3197.53    17.07      0          0          10890     
JF23B            3188.32    21.68      0          0          0         
IN-F63A          3200.95    15.77      0          0          10890     
MF8              3189.48    23.20      0          0          0         
IN-F54           3205.52    3          0          0          10890     
JF23             3189.80    23.20      0          0          0         
IN-F53           3204.57    14.21      0          0          10890     
JF22             3191.09    19.91      0          0          0         
IN-F52B          3202.5     14.98      0          0          10890     
MF7              3192.01    18.19      0          0          0         
IN-F52           3202.92    16.23      0          0          10890     
JF21             3192.27    17.63      0          0          0         
IN-F51           3202.37    3          0          0          10890     
JF20B            3192.57    16.43      0          0          0         
IN-F49           3195.22    12.30      0          0          10890     
IN-F50           3201.67    3          0          0          10890     
JF20             3194.24    13.76      0          0          0         
JF18             3194.45    13.05      0          0          0         
JF19             3199.09    13.91      0          0          0         
IN-F47           3210.04    3          0          0          10890     
MF6              3195.23    11.19      0          0          0         
JBF14            3197.57    27.68      0          0          0         
MF6B             3214.94    9.7        0          0          0         
IN-F40           3215.05    10.45      0          0          10890     
BEND_BF11        3215.84    9.66       0          0          0         
BEND_BF10        3216.04    10.96      0          0          0         
IN-F39           3217.16    6.67       0          0          10890     
IN-F38           3218.04    5.67       0          0          10890     
IN-F42           3196.25    8.5        0          0          10890     
JBF15            3197.44    22.06      0          0          0         
MF6C             3214.08    9.73       0          0          0         
BEND_BF14        3214.48    11.52      0          0          0         
BEND_BF15        3215.36    11.14      0          0          0         
IN-F44A          3217.22    7.33       0          0          10890     
IN-F44B          3217.38    7.17       0          0          10890     
IN-F45A          3217.93    6.67       0          0          10890     
IN-F45B          3218.43    6.17       0          0          10890     
IN-F45C          3218.93    5.67       0          0          10890     
JF17             3195.94    13.06      0          0          0         
IN-F37           3199.77    8          0          0          10890     
JF16             3196.59    19.91      0          0          0         
IN-F35           3206.73    17.59      0          0          10890     
MF4              3196.92    22.04      0          0          0         
JBF10            3208.89    18.61      0          0          0         
IN-F24           3217.77    9.66       0          0          10890     
IN-F23B          3218.98    7.57       0          0          10890     
IN-F23           3219.41    5.17       0          0          10890     
IN-F20           3220.46    3          0          0          10890     
IN-F25           3211.84    10.18      0          0          10890     
IN-F26           3214.77    6.5        0          0          10890     
IN-F27           3215.28    8.17       0          0          10890     
IN-F28           3215.46    5.5        0          0          10890     
MF5              3216.80    8.90       0          0          0         
IN-F32           3220.83    4.67       0          0          10890     
IN-F33B          3217.13    9.17       0          0          10890     
IN-F31           3222.30    4.67       0          0          10890     
JF14             3218.16    7.34       0          0          0         
IN-F33A          3220.33    5.67       0          0          10890     
IN-F33C          3218.43    7.67       0          0          10890     
JF15             3219.60    6.40       0          0          0         
IN-F34           3220.85    4.67       0          0          10890     
IN-F29B          3220.63    5.67       0          0          10890     
IN-F29A          3221.29    5.01       0          0          10890     
IN-F30           3222.23    5.17       0          0          10890     
JF13             3197.22    23.28      0          0          0         
IN-F22           3218.29    3          0          0          10890     
JF12             3197.97    24.03      0          0          0         
IN-F21           3214.46    5          0          0          10890     
JF11             3198.32    22.43      0          0          0         
IN-F19           3217.23    3          0          0          10890     
MF3              3198.53    21.05      0          0          0         
IN-F10F          3211.69    6.50       0          0          10890     
IN-F17           3211.72    7.91       0          0          10890     
IN-F18           3207.27    3          0          0          10890     
IN-F18B          3210.74    5          0          0          10890     
JF10B            3199.28    18.22      0          0          0         
IN-F10E          3210.05    6.50       0          0          10890     
JBF4             3210.40    9.60       0          0          0         
IN-F16C          3216.40    6.5        0          0          10890     
JF10             3199.58    15.92      0          0          0         
IN-F10D          3208.30    6          0          0          10890     
JBF7             3208.51    14.99      0          0          0         
IN-F16B          3220.71    5.67       0          0          10890     
JF9              3199.88    13.12      0          0          0         
IN-F10C          3207.10    5          0          0          10890     
JBF3             3207.16    15.84      0          0          0         
IN-F16           3223.10    5.67       0          0          10890     
IN-F14           3201.62    10.01      0          0          10890     
IN-F15           3206.10    4          0          0          10890     
MF2B             3200.20    10.51      0          0          0         
IN-F10B          3204.64    5          0          0          10890     
IN-F12B          3204.15    5          0          0          10890     
JF8              3200.44    9.31       0          0          0         
IN-F10A          3203.54    5          0          0          10890     
BEND_BF8         3202.19    11.81      0          0          0         
IN-F13           3205.30    19.82      0          0          10890     
BEND_BF7         3200.47    9.23       0          0          0         
BEND_BF6         3200.56    8.44       0          0          0         
JF7              3200.78    8.02       0          0          0         
IN-F11           3203.21    4          0          0          10890     
BEND_BF5         3204.02    3.98       0          0          0         
IN-F12           3204.45    3.50       0          0          10890     
JF6              3200.81    7.99       0          0          0         
IN-F10           3203.75    4          0          0          10890     
JF5              3200.97    8.03       0          0          0         
IN-F9            3202.74    14.49      0          0          10890     
MF2              3201.26    8.59       0          0          0         
IN-F8            3203.33    3          0          0          10890     
BEND_BF3         3201.99    9.51       0          0          0         
JF4              3202.01    9.99       0          0          0         
BEND_BF2         3205.13    6.37       0          0          0         
BEND_BF1         3202.07    9.93       0          0          0         
IN-F6            3206.95    17.16      0          0          10890     
JF2              3202.44    13.06      0          0          0         
IN-F4            3212.34    3.5        0          0          10890     
IN-F5            3206.15    8          0          0          10890     
MF1B             3203.08    22.23      0          0          0         
IN-F3            3221.47    4          0          0          10890     
IN-F3B           3217.91    3          0          0          10890     
MF1              3203.80    32.91      0          0          0         
IN-F2            3223.13    4.5        0          0          10890     
IN-F2B           3226.47    3          0          0          10890     
;invert + 4.22
JB_0931          3207.104   15         0          0          4356      
;invert + 4.35
MH_5043          3208.2     15         0          0          4356      
JC10             3198.55    5.45       0          0          10890     
IN-C20           3198.94    5.17       0          0          10890     
IN-C19A          3199.81    4.67       0          0          10890     
IN-C19B          3199.88    4.67       0          0          10890     
IN-C18           3200.20    4.67       0          0          10890     
IN-C16           3201.45    4.67       0          0          10890     
IN-C15           3201.24    4.67       0          0          10890     
IN-C13           3201.82    4.67       0          0          10890     
IN-C10           3203.11    4.67       0          0          10890     
IN-C7            3204.93    5.17       0          0          10890     
IN-C6            3206.03    5.17       0          0          10890     
IN-C5            3206.65    4.67       0          0          10890     
;conert to storage node.  invert + 3.48 = pgl
JB_1120          3207.52    10         0          0          0         
;convert to storage node.  invert + 3.577 = pgl.
;pond to 7ft
JB_0643          3207.403   10         0          0          4356      

[OUTFALLS]
;;Name           Elevation  Type       Stage Data       Gated    Route To        
;;-------------- ---------- ---------- ---------------- -------- ----------------
1                3162.78    FIXED      3168.00          NO                       
ConcreteChannel  3220.38    FREE                        NO                       

[STORAGE]
;;Name           Elev.    MaxDepth   InitDepth  Shape      Curve Name/Params            N/A      Fevap    Psi      Ksat     IMD     
;;-------------- -------- ---------- ----------- ---------- ---------------------------- -------- --------          -------- --------
PlayaLake44      3213.5   12.5       4.5        TABULAR    Pond                         0        0       
PlayaLake44b     3216     10         2          TABULAR    Pond2                        0        0       
;Invert moved up FROM 3209.08 to 3211.08
;invert + 4.1 = pgl
IN_4337          3211.08  10         0          TABULAR    IN_4337-STORAGE              0        0       
;Invert moved up from 3209.133 to 3211.133
;Invert + 3.167 = pgl
IN_4749          3211.133 10         0          TABULAR    IN_4749-STORAGE              0        0       
;Invert to Land sirface moved from 4.46 to 2.43
IN_4748          3210.35  10         0          TABULAR    IN_4748-STORAGE              0        0       
;  PGL at Invert+7 feet.
IN-F79           3178.84  31.16      0          TABULAR    IN-F79-STORAGE               0        0       
;Conver to storage node.  Invert + 10.43 is PGL.   Allow 15 feet ponding
IN-F78           3177.90  18.13      0          TABULAR    IN-F78_STORAGE               0        0       
;Convert to storage node.  Invert +3.5 is PGL.   Allow 10 ft. ponding
IN-F77           3182.33  27.67      0          TABULAR    F-77_STORAGE                 0        0       
;convert to storage node.  invert + 3 is PGL.  Allow 6 ft. ponding
IN-F48           3201.86  6          0          TABULAR    F48_STORAGE-AREA             0        0       
;convert to storage node.  invert + 5 is PGL.   Allow 8 ft ponding
IN-F41           3197.5   8          0          TABULAR    F41-DEPTH-AREA               0        0       
;convert to storage node.  invert + 5 ft is PGL.  Allow 8 ft ponding
IN-F43           3197.35  8          0          TABULAR    F43-DEPTH-AREA               0        0       
;convert to storage node.  Invert + 2.8 is PGL  allow 6 feet ponding
IN_1120          3208.27  10         0          TABULAR    IN_1120-DEPTH-AREA           0        0       
;convert to storage node.  invert + 2.25 is PGL.  Allow 5 ft. ponding
IN_1118          3210.09  10         0          TABULAR    IN_1118_DEPTH-AREA           0        0       
;convert to storage node.  invert + 3.58 is PGL.  allow 6 ft ponding
IN_1119          3208.76  10         0          TABULAR    IN-1119                      0        0       
;convert to storage node.  invert +4.67 is pgl.  allow 8 ft . ponding
IN-C9            3203.30  8          0          TABULAR    IN-C9-DEPTH-AREA             0        0       
;convert to storage node. invert + 10.47 is PGL.
IN-F46           3200.53  12         0          TABULAR    IN-F46-depth-area            0        0       
;convert to storage node.  invert + 2.75 is PGL.
IN-G2            3211.709 5          0          TABULAR    IN-G2-depth-area             0        0       
;convert to storage node.  invert + 4.67 is PGL.
IN-G3            3209.04  7          0          TABULAR    IN-G3-depth-area             0        0       
;convert to storage node.  invert + 4.67 is PGL.
IN-G4            3208.78  7          0          TABULAR    IN-G4                        0        0       
;convert to storage node.  invert + 6 = pgl. pond to 8
JC3              3201.20  10         0          TABULAR    JC3                          0        0       
;convert to storage node. invert + 9.87 = PGL
;this is also a street node for excess flow from TTU along University
JBG1             3200.13  12         0          TABULAR    JBG1-depth-area              0        0       
;convert to storage node also a street node. invert + 4.2 = pgl
IN_1121          3207.12  10         0          TABULAR    IN_1121                      0        0       
;Convert to storage node.  also street node.
;invert + 4.67 = pgl
IN-G12           3205.29  11         0          TABULAR    IN-G12-depth-area            0        0       
;convert to storage node.  invert + 3 is PGL.  Allow 5 ft. pond
IN-C3            3205.33  10         0          TABULAR    IN-C3-depth-area             0        0       
; invert + 6.17
IN-C1            3204.67  10         0          TABULAR    IN-C1                        0        0       
;invert+4.67
IN-C2            3206.52  10         0          TABULAR    IN-C2                        0        0       
;invert + 6.02
MC1              3204.52  10         0          TABULAR    MC-1                         0        0       
;invert + 7.67
IN-C4            3203.61  10         0          TABULAR    IN-C4                        0        0       
;invert+7.34
JC1              3202.91  10         0          TABULAR    JC1                          0        0       
;invert + 7.08
JC2              3201.92  10         0          TABULAR    JC2                          0        0       
;invert + 6.67
IN-C8            3201.30  10         0          TABULAR    IN-C8                        0        0       
;invert + 5.9
JC4              3201.10  10         0          TABULAR    JC4                          0        0       
;invert+6.17
IN-C11           3200.39  10         0          TABULAR    IN-C11                       0        0       
;invert + 5.79
JC5              3200.21  10         0          TABULAR    JC5                          0        0       
;invert + 5.73
JC6              3200.02  10         0          TABULAR    JC6                          0        0       
;invert + 6.67
IN-C14           3198.83  10         0          TABULAR    IN-C14                       0        0       
;invert + 6.33
JC7              3198.67  10         0          TABULAR    JC7                          0        0       
;invert + 6.63
JC8              3198.57  10         0          TABULAR    JC8                          0        0       
;invert + 7.17
IN-C17           3197.80  10         0          TABULAR    IN-C17                       0        0       
;invert + 6.87
JC9              3197.63  10         0          TABULAR    JC9                          0        0       
;M-30 on 2004 drawings sheet 596.
;invert + 34.4 (storage node)
MH_30            3169.9   44.4       0          TABULAR    MH_30                        0        0       
;invert + 5.17
IN-G1            3208.59  10         0          TABULAR    IN-G1                        0        0       
;invert + 5.26
MG1              3208.26  10         0          TABULAR    MG1                          0        0       
;invert + 5.26
JG1              3207.82  10         0          TABULAR    JG1                          0        0       
;invert + 6.27
IN-G5            3207.06  10         0          TABULAR    IN-G5                        0        0       
;invert + 5m67
IN-G6            3206.80  10         0          TABULAR    IN-G6                        0        0       
;invert + 6.17
IN-G7            3205.56  6.17       0          TABULAR    IN-G7                        0        0       
;invert + 6.17
IN-G8            3205.31  6.17       0          TABULAR    IN-G8                        0        0       
;invert + 6.17
IN-G9            3204.43  10         0          TABULAR    IN-G9                        0        0       
;invert + 11
IN-G10           3199.26  20         0          TABULAR    IN-G10                       0        0       
;invert + 6
IN-G11           3204.53  10         0          FUNCTIONAL 1000      0         0        0        0       
;invert + 4.67
IN-C12           3201.94  4.67       0          TABULAR    IN-C12                       0        0       
;Moved up FROM 3207.76 to 3209.57
;Invet + 2.43 = PGL
201              3209.57  10         0          TABULAR    N201                         0        0       
;Moved invert up from 3208.308 to 3210.308
;Invert + 4.912 = pgl
203              3210.308 10         0          TABULAR    N203                         0        0       
;Moved invert from 3208.88 to 3210.88.
;Change to storage node -- share storage
; with attached inlet.  invert + 4.4 is PGL
205              3210.880 10         0          TABULAR    N205                         0        0       
;invert + 9.46
IN-G14           3201.45  12         0          TABULAR    IN-G14                       0        0       
;invert + 8.42
IN-G15           3202.69  12         0          TABULAR    IN-G15                       0        0       
;invert + 8.36
IN-G16           3202.99  12         0          TABULAR    IN-G16                       0        0       
;invert + 6.67
IN-G17           3203.78  12         0          TABULAR    IN-G17                       0        0       
;invert + 5.67
IN-G18           3204.28  12         0          TABULAR    IN-G18                       0        0       
;invert + 5.17
IN-G19           3204.65  12         0          TABULAR    IN-G19                       0        0       
;invert+5.17
IN-G13           3204.89  12         0          TABULAR    IN-G13                       0        0       
;invert+4
IN-F75           3186.5   8.5        0          FUNCTIONAL 1000      0         0        0        0       
JONES-STORE      3176     16         0          TABULAR    JONES-PUMP-SUMP              0        0       
;invert + 17.44
MF12             3176.01  17.44      0          FUNCTIONAL 1000      0         0        0        0       
;inlet + 4.35
MH_5339          3207.01  15         0          FUNCTIONAL 1000      0         0        0        0       

[CONDUITS]
;;Name           From Node        To Node          Length     Roughness  InOffset   OutOffset  InitFlow   MaxFlow   
;;-------------- ---------------- ---------------- ---------- ---------- ---------- ---------- ---------- ----------
RUNOUT           END-OF-PIPES     1                25         0.016      0          0          0          0         
M-0-5-6          MH-33            END-OF-PIPES     167.5      0.016      0          0          0          0         
M-O-4            MH_5452          MH-33            284        0.016      0          0.7        0          0         
M-O-3            MH_5447          MH_5452          1317.49    0.016      0          0          0          0         
CL-F00           MH-MF28          MH_30            218.5      0.016      0          0          0          0         
;May be 228.5 + 29.52 short from 1994 drawing to 2004 drawing
M-O-2            MH_30            MH_5447          3686.1     0.016      0          0          0          0         
LAT-F59a         IN-F85           MH-MF28          172.72     0.016      0          20.33      0          0         
LAT-F59b         IN-F84           IN-F85           74.50      0.016      0          0.5        0          0         
LAT-59c          IN-F83           IN-F84           74         0.016      0          0          0          0         