[TITLE]
;;Project Title/Notes

[OPTIONS]
;;Option             Value
FLOW_UNITS           CFS
INFILTRATION         CURVE_NUMBER
FLOW_ROUTING         DYNWAVE
LINK_OFFSETS         DEPTH
MIN_SLOPE            0
ALLOW_PONDING        YES
SKIP_STEADY_STATE    NO

START_DATE           12/11/2015
START_TIME           00:00:00
REPORT_START_DATE    12/11/2015
REPORT_START_TIME    00:00:00
END_DATE             12/13/2015
END_TIME             23:00:00
SWEEP_START          01/01
SWEEP_END            12/31
DRY_DAYS             0
REPORT_STEP          00:05:00
WET_STEP             00:05:00
DRY_STEP             00:05:00
ROUTING_STEP         0:00:12 

INERTIAL_DAMPING     FULL
NORMAL_FLOW_LIMITED  FROUDE
FORCE_MAIN_EQUATION  H-W
VARIABLE_STEP        0.50
LENGTHENING_STEP     0
MIN_SURFAREA         12.557
MAX_TRIALS           19
HEAD_TOLERANCE       0.005
SYS_FLOW_TOL         5
LAT_FLOW_TOL         5
MINIMUM_STEP         0.5
THREADS              1

[EVAPORATION]
;;Data Source    Parameters
;;-------------- ----------------
CONSTANT         0.0
DRY_ONLY         NO

[RAINGAGES]
;;Name           Format    Interval SCF      Source    
;;-------------- --------- ------ ------ ----------
RainGage1        CUMULATIVE 0:15     1.0      TIMESERIES TXHYETO-50YR-03HR-15MIN

[SUBCATCHMENTS]
;;Name           Rain Gage        Outlet           Area     %Imperv  Width    %Slope   CurbLen  SnowPack        
;;-------------- ---------------- ---------------- -------- -------- -------- -------- -------- ----------------
DA-F2            RainGage1        IN-F2            1.380    0        116.25   3.87     0                        
DA-F2B           RainGage1        IN-F2B           0.243    0        19.67    2.97     0                        
DA-F3            RainGage1        IN-F3            0.288    0        51.99    3.42     0                        
DA-F3B           RainGage1        IN-F3B           1.145    0        109.91   4.02     0                        
DA-F4            RainGage1        IN-F4            1.207    0        110.25   2.73     0                        
DA-F5            RainGage1        IN-F5            1.854    0        75.23    3.10     0                        
DA-F6            RainGage1        IN-F6            0.175    0        36.22    3.74     0                        
DA-F8            RainGage1        IN-F8            3.415    0        246.53   3.55     0                        
DA-F9            RainGage1        IN-F9            0.405    0        267.95   22.44    0                        
DA-F10           RainGage1        IN-F10           0.256    0        46.61    1.36     0                        
DA-F10A          RainGage1        IN-F10A          0.150    0        29.54    1.58     0                        
DA-F10B          RainGage1        IN-F10B          0.228    0        36.09    1.81     0                        
DA-F10C          RainGage1        IN-F10C          0.203    0        35.66    1.71     0                        
DA-F10D          RainGage1        IN-F10D          0.211    0        37.49    1.74     0                        
DA-F10E          RainGage1        IN-F10E          0.156    0        36.77    1.36     0                        
DA-F10F          RainGage1        IN-F10F          0.334    0        48.70    1.76     0                        
DA-F11           RainGage1        IN-F11           0.901    0        59.98    2.11     0                        
DA-F12           RainGage1        IN-F12           0.195    0        35.88    0.87     0                        
DA-F12B          RainGage1        IN-F12B          0.258    0        64.82    1.73     0                        
DA-F13           RainGage1        IN-F13           0.274    0        156.76   14.27    0                        
DA-F14           RainGage1        IN-F14           0.767    0        45.83    1.25     0                        
DA-F15           RainGage1        IN-F15           1.716    0        159.77   3.55     0                        
DA-F16           RainGage1        IN-F16           0.239    0        81.01    0.78     0                        
DA-F16B          RainGage1        IN-F16B          0.317    0        83.96    1.40     0                        
DA-F16C          RainGage1        IN-F16C          0.216    0        41.61    1.30     0                        
DA-F17           RainGage1        IN-F17           0.277    0        21.34    1.77     0                        
DA-F18           RainGage1        IN-F18           1.637    0        169.96   3.81     0                        
DA-F18B          RainGage1        IN-F18B          2.517    0        372.74   3.15     0                        
DA-F19           RainGage1        IN-F19           0.290    0        50.47    1.20     0                        
DA-F20           RainGage1        IN-F20           1.505    0        115.52   0.88     0                        
DA-F21           RainGage1        IN-F21           0.322    0        45.92    2.05     0                        
DA-F22           RainGage1        IN-F22           0.384    0        25.78    1.23     0                        
DA-F23           RainGage1        IN-F23           0.384    0        96.60    1.67     0                        
DA-F23B          RainGage1        IN-F23B          0.447    0        85.03    0.52     0                        
DA-F24           RainGage1        IN-F24           0.305    0        30.45    0.63     0                        
DA-F25           RainGage1        IN-F25           4.296    0        438.03   0.70     0                        
DA-F26           RainGage1        IN-F26           8.454    0        540.34   0.59     0                        
DA-F27           RainGage1        IN-F27           0.889    0        39.08    0.71     0                        
DA-F28           RainGage1        IN-F28           1.009    0        480.05   3.28     0                        
DA-F29A          RainGage1        IN-F29A          0.696    0        51.36    1.36     0                        
DA-F29B          RainGage1        IN-F29B          0.696    0        51.36    1.36     0                        
DA-F30           RainGage1        IN-F30           1.248    0        181.90   2.34     0                        
DA-F31           RainGage1        IN-F31           1.054    0        94.50    1.65     0                        
DA-F32           RainGage1        IN-F32           0.455    0        55.72    0.25     0                        
DA-F33A          RainGage1        IN-F33A          0.472    0        105.51   0.51     0                        
DA-F33B          RainGage1        IN-F33B          0.762    0        90.67    0.27     0                        
DA-F33C          RainGage1        IN-F33C          1.612    0        355.61   1.01     0                        
DA-F34           RainGage1        IN-F34           1.001    0        211.73   0.24     0                        
DA-F35           RainGage1        IN-F35           0.292    0        33.58    2.24     0                        
DA-F37           RainGage1        IN-F37           0.917    0        45.94    1.55     0                        
DA-F38           RainGage1        IN-F38           1.389    0        72.53    0.36     0                        
DA-F39           RainGage1        IN-F39           2.765    0        152.98   0.63     0                        
DA-F40           RainGage1        IN-F40           0.652    0        127.04   2.13     0                        
DA-F41           RainGage1        IN-F41           3.092    0        99.10    1.25     0                        
DA-F42           RainGage1        IN-F42           0.688    0        39.48    0.33     0                        
DA-F43           RainGage1        IN-F43           2.767    0        105.15   2.09     0                        
DA-F44A          RainGage1        IN-F44A          0.571    0        30.89    0.62     0                        
DA-F45A          RainGage1        IN-F45A          2.121    0        109.207  0.47     0                        
DA-F45B          RainGage1        IN-F45B          2.121    0        109.207  0.47     0                        
DA-F45C          RainGage1        IN-F45C          2.121    0        109.207  .47      0                        
DA-F46           RainGage1        IN-F46           21.008   0        1255.40  2.21     0                        
DA-F47           RainGage1        IN-F47           0.986    0        86.35    3.22     0                        
DA-F48           RainGage1        IN-F48           22.369   0        862.63   2.15     0                        
DA-F49           RainGage1        IN-F49           0.963    0        35.43    0.38     0                        
DA-F50           RainGage1        IN-F50           2.742    0        100.34   0.59     0                        
DA-F51           RainGage1        IN-F51           18.973   0        855.80   2.49     0                        
DA-F52           RainGage1        IN-F52           1.368    0        165.14   4.71     0                        
DA-F52B          RainGage1        IN-F52B          1.272    0        252.28   5.35     0                        
DA-F44B          RainGage1        IN-F44B          1.142    0        61.78    0.63     0                        
DA-F53           RainGage1        IN-F53           0.294    0        258.68   15.68    0                        
DA-F54           RainGage1        IN-F54           0.996    0        202.92   9.00     0                        
DA-F55           RainGage1        IN-F55           10.122   0        417.98   2.11     0                        
DA-F56           RainGage1        IN-F56           1.268    0        35.77    0.52     0                        
DA-F57A          RainGage1        IN-F57A          0.268    0        32.07    1.3      0                        
DA-F57B          RainGage1        IN-F57B          0.268    0        32.07    1.3      0                        
DA-F58           RainGage1        IN-F58           0.735    0        81.63    1.02     0                        
DA-F59           RainGage1        IN-F59           1.201    0        66.57    2.04     0                        
DA-F60           RainGage1        IN-F60           2.621    0        121.59   .91      0                        
DA-F61           RainGage1        IN-F61           1.544    0        66.13    0.47     0                        
DA-F62           RainGage1        IN-F62           3.842    0        100.80   0.60     0                        
DA-F63           RainGage1        IN-F63           1.122    0        139.56   4.14     0                        
DA-F63A          RainGage1        IN-F63A          3.404    0        255.81   2.33     0                        
DA-F63B          RainGage1        IN-F63B          3.441    0        253.55   3.04     0                        
DA-F64           RainGage1        IN-F64           1.815    0        142.16   1.98     0                        
DA-F65           RainGage1        IN-F65           0.785    0        55.73    1.96     0                        
DA-F66           RainGage1        IN-F66           0.875    0        107.14   5.09     0                        
DA-F67           RainGage1        IN-F67           0.384    0        46.11    1.96     0                        
DA-F68           RainGage1        IN-F68           5.504    0        364.58   1.86     0                        
DA-F69           RainGage1        IN-F69           7.585    0        836.24   3.29     0                        
DA-F70           RainGage1        IN-F70           1.644    0        58.10    0.61     0                        
DA-F70B          RainGage1        IN-F70B          3.935    0        128.04   0.97     0                        
DA-F71           RainGage1        IN-F71           1.703    0        125.67   7.11     0                        
DA-F72           RainGage1        IN-F72           1.221    0        85.77    1.97     0                        
DA-F74           RainGage1        IN-F74           2.305    0        85.97    0.69     0                        
DA-F75           RainGage1        IN-F75           4.285    0        165.54   0.71     0                        
DA-F76           RainGage1        IN-F76           0.381    0        37.67    2.84     0                        
DA-F77           RainGage1        IN-F77           3.876    0        116.88   1.52     0                        
DA-F78           RainGage1        IN-F78           1.355    0        59.23    0.60     0                        
DA-F79           RainGage1        IN-F79           4.62     0        137.21   1.50     0                        
DA-F80           RainGage1        IN-F80           0.481    0        35.11    2.18     0                        
DA-F81           RainGage1        IN-F81           0.494    0        31.48    1.76     0                        
DA-F82           RainGage1        IN-F82           0.929    0        35.90    1.60     0                        
DA-F83           RainGage1        IN-F83           3.95     0        143.07   0.66     0                        
DA-F84           RainGage1        IN-F84           2.363    0        51.98    1.01     0                        
DA-F85           RainGage1        IN-F85           4.507    0        165.81   0.76     0                        
DA-E1            RainGage1        IN-E1            0.53     0        80.15    0.69     0                        
DA-E2            RainGage1        IN-E2            0.757    0        174.64   1.06     0                        
DA-E3            RainGage1        IN-E3            0.163    0        56.94    1.20     0                        
DA-E4            RainGage1        IN-E4            0.445    0        101.32   0.65     0                        
DA-E5            RainGage1        IN-E5            0.921    0        120.64   0.69     0                        
DA-E6            RainGage1        IN-E6            0.321    0        75.44    1.03     0                        
DA-E7            RainGage1        IN-E7            0.329    0        68.99    0.96     0                        
DA-E8            RainGage1        IN-E8            0.185    0        125.35   0.39     0                        
DA-E9            RainGage1        IN-E9            0.123    0        84.64    1.58     0                        
DA-E10           RainGage1        IN-E10           0.520    0        112.22   0.50     0                        
DA-E11           RainGage1        IN-E11           0.490    0        117.62   0.69     0                        
DA-E12           RainGage1        IN-E12           0.612    0        140.44   0.90     0                        
DA-E13           RainGage1        IN-E13           0.768    0        131.65   0.79     0                        
DA-E14           RainGage1        IN-E14           0.273    0        98.37    1.24     0                        
DA-E15           RainGage1        IN-E15           0.239    0        89.76    1.08     0                        
DA-H1            RainGage1        IN-H1            0.440    0        80.03    0.84     0                        
DA-H2            RainGage1        IN-H2            0.965    0        155.01   0.74     0                        
DA-H3            RainGage1        IN-H3            0.421    0        53.32    0.58     0                        
DA-H4            RainGage1        IN-H4            0.540    0        124.63   1.19     0                        
DA-H5            RainGage1        IN-H5            1.061    0        137.15   0.89     0                        
DA-H6            RainGage1        IN-H6            0.578    0        74.08    0.91     0                        
DA-H7            RainGage1        IN-H7            1.597    0        208.21   1.20     0                        
DA-H8            RainGage1        IN-H8            0.301    0        156.60   2.39     0                        
DA-H9            RainGage1        IN-H9            0.383    0        133.96   1.20     0                        
DA-H10           RainGage1        IN-H10           1.454    0        563.43   0.89     0                        
DA-G1            RainGage1        IN-G1            0.734    0        58.47    0.78     0                        
DA-G2            RainGage1        IN-G2            3.516    0        208.27   0.20     0                        
DA-G3            RainGage1        IN-G3            1.800    0        201.88   0.97     0                        
DA-G4            RainGage1        IN-G4            2.165    0        204.57   0.22     0                        
DA-G5            RainGage1        IN-G5            0.525    0        69.19    0.26     0                        
DA-G6            RainGage1        IN-G6            0.911    0        319.34   3.62     0                        
DA-G7            RainGage1        IN-G7            0.536    0        166.70   3.57     0                        
DA-G8            RainGage1        IN-G8            0.344    0        100.17   0.84     0                        
;FakeArea  use 0.364 for actial from GIS map
DA-G9            RainGage1        IN-G9            0.364    0        78.17    0.12     0                        
DA-G10           RainGage1        IN-G10           1.141    0        121.12   0.37     0                        
DA-G11           RainGage1        IN-G11           2.842    0        233.36   0.57     0                        
DA-G12           RainGage1        IN-G12           0.891    0        105.48   0.10     0                        
DA-G13           RainGage1        IN-G13           1.280    0        148.03   0.1      0                        
DA-G14           RainGage1        IN-G14           0.442    0        94.07    0.35     0                        
DA-G15           RainGage1        IN-G15           0.233    0        109.02   1.07     0                        
DA-G16           RainGage1        IN-G16           0.413    0        169.73   0.47     0                        
DA-G17           RainGage1        IN-G17           0.636    0        116.52   0.21     0                        
DA-G18           RainGage1        IN-G18           0.617    0        140.14   0.52     0                        
DA-G19           RainGage1        IN-G19           0.350    0        103.48   0.34     0                        
DA-1118          RainGage1        IN_1118          12.407   0        382.56   0.42     0                        
DA-1119          RainGage1        IN_1119          18.640   0        537.25   0.26     0                        
DA-1120          RainGage1        IN_1120          14.040   0        311.81   0.23     0                        
DA-1121          RainGage1        IN_1121          4.728    0        477.23   0.93     0                        
DA-C1            RainGage1        IN-C1            1.044    0        96.77    0.21     0                        
DA-C2            RainGage1        IN-C2            4.958    0        137.39   0.10     0                        
DA-C3            RainGage1        IN-C3            0.119    0        22.68    2.41     0                        
DA-C4            RainGage1        IN-C4            1.613    0        126.87   0.05     0                        
DA-C5            RainGage1        IN-C5            1.15     0        130.87   0.27     0                        
DA-C6            RainGage1        IN-C6            0.913    0        103.92   0.16     0                        
DA-C7            RainGage1        IN-C7            3.134    0        356.78   0.42     0                        
DA-C8            RainGage1        IN-C8            0.605    0        44.71    0.42     0                        
DA-C9            RainGage1        IN-C9            12.866   0        304.13   0.31     0                        
DA-C10           RainGage1        IN-C10           0.247    0        29.47    0.05     0                        
DA-C11           RainGage1        IN-C11           1.985    0        134.61   0.42     0                        
DA-C12           RainGage1        IN-C12           1.630    0        110.54   0.17     0                        
DA-C13           RainGage1        IN-C13           0.991    0        114.91   0.13     0                        
DA-C14           RainGage1        IN-C14           0.593    0        68.72    0.24     0                        
DA-C15           RainGage1        IN-C15           1.688    0        178.91   0.29     0                        
DA-C16           RainGage1        IN-C16           0.734    0        87.57    0.19     0                        
DA-C17           RainGage1        IN-C17           0.490    0        58.47    0.11     0                        
DA-C18           RainGage1        IN-C18           2.355    0        233.57   0.25     0                        
DA-C19b          RainGage1        IN-C19b          5.253    0        145.569  0.24     0                        
DA-C19a          RainGage1        IN-C19a          5.253    0        145.569  0.24     0                        
DA-C20           RainGage1        IN-C20           1.322    0        136.30   0.24     0                        
LINE-S           RainGage1        PlayaLake44      124.91   0        1004.347 0.48     0                        
LINE-R           RainGage1        PlayaLake44      197.32   0        1299.432 0.42     0                        
LINE-P           RainGage1        PlayaLake44      0.74     0        49.653   1.00     0                        
LINE-W           RainGage1        PlayaLake44b     58.1     0        852.38   0.56     0                        
C-2              RainGage1        PlayaLake44b     135.82   0        1186.32  0.56     0                        
LATQ1            RainGage1        PlayaLake44b     2.85     0        183.31   0.30     0                        
LAT-Q2           RainGage1        PlayaLake44      0.86     0        137.00   0.73     0                        
Campus_01        RainGage1        IN_4337          46.09    100      367.18   0.27     0                        
Campus_02        RainGage1        IN_4749          46.09    0        367.18   0.27     0                        
Campus_03        RainGage1        IN_4748          46.09    0        367.18   0.27     0                        
JONES-DRAIN      RainGage1        JONES-STORE      6.5      100      532      0.5      0                        

[SUBAREAS]
;;Subcatchment   N-Imperv   N-Perv     S-Imperv   S-Perv     PctZero    RouteTo    PctRouted 
;;-------------- ---------- ---------- ---------- ---------- ---------- ---------- ----------
DA-F2            0.01       0.025      0          0          25         OUTLET    
DA-F2B           0.01       0.025      0          0          25         OUTLET    
DA-F3            0.01       0.025      0          0          25         OUTLET    
DA-F3B           0.01       0.025      0          0          25         OUTLET    
DA-F4            0.01       0.025      0          0          25         OUTLET    
DA-F5            0.01       0.025      0          0          25         OUTLET    
DA-F6            0.01       0.025      0          0          25         OUTLET    
DA-F8            0.01       0.025      0          0          25         OUTLET    
DA-F9            0.01       0.025      0          0          25         OUTLET    
DA-F10           0.01       0.025      0          0          25         OUTLET    
DA-F10A          0.01       0.025      0          0          25         OUTLET    
DA-F10B          0.01       0.025      0          0          25         OUTLET    
DA-F10C          0.01       0.025      0          0          25         OUTLET    
DA-F10D          0.01       0.025      0          0          25         OUTLET    
DA-F10E          0.01       0.025      0          0          25         OUTLET    
DA-F10F          0.01       0.025      0          0          25         OUTLET    
DA-F11           0.01       0.025      0          0          25         OUTLET    
DA-F12           0.01       0.025      0          0          25         OUTLET    
DA-F12B          0.01       0.025      0          0          25         OUTLET    
DA-F13           0.01       0.025      0          0          25         OUTLET    
DA-F14           0.01       0.025      0          0          25         OUTLET    
DA-F15           0.01       0.025      0          0          25         OUTLET    
DA-F16           0.01       0.025      0          0          25         OUTLET    
DA-F16B          0.01       0.025      0          0          25         OUTLET    
DA-F16C          0.01       0.025      0          0          25         OUTLET    
DA-F17           0.01       0.025      0          0          25         OUTLET    
DA-F18           0.01       0.025      0          0          25         OUTLET    
DA-F18B          0.01       0.025      0          0          25         OUTLET    
DA-F19           0.01       0.025      0          0          25         OUTLET    
DA-F20           0.01       0.025      0          0          25         OUTLET    
DA-F21           0.01       0.025      0          0          25         OUTLET    
DA-F22           0.01       0.025      0          0          25         OUTLET    
DA-F23           0.01       0.025      0          0          25         OUTLET    
DA-F23B          0.01       0.025      0          0          25         OUTLET    
DA-F24           0.01       0.025      0          0          25         OUTLET    
DA-F25           0.01       0.025      0          0          25         OUTLET    
DA-F26           0.01       0.025      0          0          25         OUTLET    
DA-F27           0.01       0.025      0          0          25         OUTLET    
DA-F28           0.01       0.025      0          0          25         OUTLET    
DA-F29A          0.01       0.025      0          0          25         OUTLET    
DA-F29B          0.01       0.025      0          0          25         OUTLET    
DA-F30           0.01       0.025      0          0          25         OUTLET    
DA-F31           0.01       0.025      0          0          25         OUTLET    
DA-F32           0.01       0.025      0          0          25         OUTLET    
DA-F33A          0.01       0.025      0          0          25         OUTLET    
DA-F33B          0.01       0.025      0          0          25         OUTLET    
DA-F33C          0.01       0.025      0          0          25         OUTLET    
DA-F34           0.01       0.025      0          0          25         OUTLET    
DA-F35           0.01       0.025      0          0          25         OUTLET    
DA-F37           0.01       0.025      0          0          25         OUTLET    
DA-F38           0.01       0.025      0          0          25         OUTLET    
DA-F39           0.01       0.025      0          0          25         OUTLET    
DA-F40           0.01       0.025      0          0          25         OUTLET    
DA-F41           0.01       0.025      0          0          25         OUTLET    
DA-F42           0.01       0.025      0          0          25         OUTLET    
DA-F43           0.01       0.025      0          0          25         OUTLET    
DA-F44A          0.01       0.025      0          0          25         OUTLET    
DA-F45A          0.01       0.025      0          0          25         OUTLET    
DA-F45B          0.01       0.025      0          0          25         OUTLET    
DA-F45C          0.01       0.025      0          0          25         OUTLET    
DA-F46           0.01       0.025      0          0          25         OUTLET    
DA-F47           0.01       0.025      0          0          25         OUTLET    
DA-F48           0.01       0.025      0          0          25         OUTLET    
DA-F49           0.01       0.025      0          0          25         OUTLET    
DA-F50           0.01       0.025      0          0          25         OUTLET    
DA-F51           0.01       0.025      0          0          25         OUTLET    
DA-F52           0.01       0.025      0          0          25         OUTLET    
DA-F52B          0.01       0.025      0          0          25         OUTLET    
DA-F44B          0.01       0.025      0          0          25         OUTLET    
DA-F53           0.01       0.025      0          0          25         OUTLET    
DA-F54           0.01       0.025      0          0          25         OUTLET    
DA-F55           0.01       0.025      0          0          25         OUTLET    
DA-F56           0.01       0.025      0          0          25         OUTLET    
DA-F57A          0.01       0.025      0          0          25         OUTLET    
DA-F57B          0.01       0.025      0          0          25         OUTLET    
DA-F58           0.01       0.025      0          0          25         OUTLET    
DA-F59           0.01       0.025      0          0          25         OUTLET    
DA-F60           0.01       0.025      0          0          25         OUTLET    
DA-F61           0.01       0.025      0          0          25         OUTLET    
DA-F62           0.01       0.025      0          0          25         OUTLET    
DA-F63           0.01       0.025      0          0          25         OUTLET    
DA-F63A          0.01       0.025      0          0          25         OUTLET    
DA-F63B          0.01       0.025      0          0          25         OUTLET    
DA-F64           0.01       0.025      0          0          25         OUTLET    