[TITLE]
;;Project Title/Notes

[OPTIONS]
;;Option             Value
FLOW_UNITS           CFS
INFILTRATION         GREEN_AMPT
FLOW_ROUTING         DYNWAVE
LINK_OFFSETS         DEPTH
MIN_SLOPE            0
ALLOW_PONDING        YES
SKIP_STEADY_STATE    YES

START_DATE           01/01/2008
START_TIME           00:00:00
REPORT_START_DATE    01/01/2008
REPORT_START_TIME    00:00:00
END_DATE             01/17/2008
END_TIME             00:00:00
SWEEP_START          01/01
SWEEP_END            12/31
DRY_DAYS             0
REPORT_STEP          00:15:00
WET_STEP             00:15:00
DRY_STEP             00:15:00
ROUTING_STEP         0:00:10 
RULE_STEP            00:00:00

INERTIAL_DAMPING     NONE
NORMAL_FLOW_LIMITED  FROUDE
FORCE_MAIN_EQUATION  H-W
VARIABLE_STEP        0.75
LENGTHENING_STEP     0
MIN_SURFAREA         0
MAX_TRIALS           0
HEAD_TOLERANCE       0
SYS_FLOW_TOL         5
LAT_FLOW_TOL         5
MINIMUM_STEP         0.5
THREADS              1

[EVAPORATION]
;;Data Source    Parameters
;;-------------- ----------------
CONSTANT         0.0
DRY_ONLY         NO

[RAINGAGES]
;;Name           Format    Interval SCF      Source    
;;-------------- --------- ------ ------ ----------
1                INTENSITY 0:05     1.0      TIMESERIES Rain100.dat     

[SUBCATCHMENTS]
;;Name           Rain Gage        Outlet           Area     %Imperv  Width    %Slope   CurbLen  SnowPack        
;;-------------- ---------------- ---------------- -------- -------- -------- -------- -------- ----------------
91               1                1                1.77     30.0     278      0.5      0                        
92               1                2                1.77     30.0     278      0.5      0                        
93               1                3                1.77     30.0     278      0.5      0                        
94               1                4                1.77     30.0     278      0.5      0                        
95               1                5                1.77     30.0     278      0.5      0                        
96               1                6                1.77     30.0     278      0.5      0                        
97               1                7                1.77     30.0     278      0.5      0                        
98               1                8                1.77     30.0     278      0.5      0                        
99               1                9                1.77     30.0     278      0.5      0                        
100              1                10               1.77     30.0     278      0.5      0                        
101              1                11               1.77     30.0     278      0.5      0                        
102              1                12               1.77     30.0     278      0.5      0                        
103              1                13               1.77     30.0     278      0.5      0                        
104              1                14               1.77     30.0     278      0.5      0                        
105              1                15               1.77     30.0     278      0.5      0                        
106              1                16               1.77     30.0     278      0.5      0                        
107              1                17               1.77     30.0     278      0.5      0                        
108              1                18               1.77     30.0     278      0.5      0                        
109              1                19               1.77     30.0     278      0.5      0                        
110              1                20               1.77     30.0     278      0.5      0                        
111              1                21               1.77     30.0     278      0.5      0                        
112              1                22               1.77     30.0     278      0.5      0                        
113              1                23               1.77     30.0     278      0.5      0                        
114              1                24               1.77     30.0     278      0.5      0                        
115              1                25               1.77     30.0     278      0.5      0                        
116              1                26               1.77     30.0     278      0.5      0                        
117              1                27               1.77     30.0     278      0.5      0                        
118              1                28               1.77     30.0     278      0.5      0                        
119              1                29               1.77     30.0     278      0.5      0                        
120              1                30               1.77     30.0     278      0.5      0                        
121              1                31               1.77     30.0     278      0.5      0                        
122              1                32               1.77     30.0     278      0.5      0                        
123              1                33               1.77     30.0     278      0.5      0                        
124              1                34               1.77     30.0     278      0.5      0                        
125              1                35               1.77     30.0     278      0.5      0                        
126              1                36               1.77     30.0     278      0.5      0                        
127              1                37               1.77     30.0     278      0.5      0                        
128              1                38               1.77     30.0     278      0.5      0                        
129              1                39               1.77     30.0     278      0.5      0                        
130              1                40               1.77     30.0     278      0.5      0                        
131              1                41               1.77     30.0     278      0.5      0                        
132              1                42               1.77     30.0     278      0.5      0                        
133              1                43               1.77     30.0     278      0.5      0                        
134              1                44               1.77     30.0     278      0.5      0                        
135              1                45               1.77     30.0     278      0.5      0                        
136              1                46               1.77     30.0     278      0.5      0                        
137              1                47               1.77     30.0     278      0.5      0                        
138              1                48               1.77     30.0     278      0.5      0                        
139              1                49               1.77     30.0     278      0.5      0                        
140              1                50               1.77     30.0     278      0.5      0                        
141              1                51               1.77     30.0     278      0.5      0                        
142              1                52               1.77     30.0     278      0.5      0                        
143              1                53               1.77     30.0     278      0.5      0                        
144              1                54               1.77     30.0     278      0.5      0                        
145              1                55               1.77     30.0     278      0.5      0                        
146              1                56               1.77     30.0     278      0.5      0                        
147              1                57               1.77     30.0     278      0.5      0                        
148              1                58               1.77     30.0     278      0.5      0                        
149              1                59               1.77     30.0     278      0.5      0                        
150              1                60               1.77     30.0     278      0.5      0                        
151              1                61               1.77     30.0     278      0.5      0                        
152              1                62               1.77     30.0     278      0.5      0                        
153              1                63               1.77     30.0     278      0.5      0                        
154              1                64               1.77     30.0     278      0.5      0                        
155              1                65               1.77     30.0     278      0.5      0                        
156              1                66               1.77     30.0     278      0.5      0                        
157              1                67               1.77     30.0     278      0.5      0                        
158              1                68               1.77     30.0     278      0.5      0                        
159              1                69               1.77     30.0     278      0.5      0                        
160              1                70               1.77     30.0     278      0.5      0                        
161              1                71               1.77     30.0     278      0.5      0                        
162              1                72               1.77     30.0     278      0.5      0                        
163              1                73               1.77     30.0     278      0.5      0                        
164              1                74               1.77     30.0     278      0.5      0                        
165              1                75               1.77     30.0     278      0.5      0                        
166              1                76               1.77     30.0     278      0.5      0                        
167              1                77               1.77     30.0     278      0.5      0                        
168              1                78               1.77     30.0     278      0.5      0                        
169              1                79               1.77     30.0     278      0.5      0                        
170              1                80               1.77     30.0     278      0.5      0                        
171              1                81               1.77     30.0     278      0.5      0                        
172              1                82               1.77     30.0     278      0.5      0                        
173              1                83               1.77     30.0     278      0.5      0                        
174              1                84               1.77     30.0     278      0.5      0                        
175              1                85               1.77     30.0     278      0.5      0                        
176              1                86               1.77     30.0     278      0.5      0                        
177              1                87               1.77     30.0     278      0.5      0                        
178              1                88               1.77     30.0     278      0.5      0                        
179              1                89               1.77     30.0     278      0.5      0                        
180              1                90               1.77     30.0     278      0.5      0                        

[SUBAREAS]
;;Subcatchment   N-Imperv   N-Perv     S-Imperv   S-Perv     PctZero    RouteTo    PctRouted 
;;-------------- ---------- ---------- ---------- ---------- ---------- ---------- ----------
91               0.01       0.1        0          0          100        OUTLET    
92               0.01       0.1        0          0          100        OUTLET    
93               0.01       0.1        0          0          100        OUTLET    
94               0.01       0.1        0          0          100        OUTLET    
95               0.01       0.1        0          0          100        OUTLET    
96               0.01       0.1        0          0          100        OUTLET    
97               0.01       0.1        0          0          100        OUTLET    
98               0.01       0.1        0          0          100        OUTLET    
99               0.01       0.1        0          0          100        OUTLET    
100              0.01       0.1        0          0          100        OUTLET    
101              0.01       0.1        0          0          100        OUTLET    
102              0.01       0.1        0          0          100        OUTLET    
103              0.01       0.1        0          0          100        OUTLET    
104              0.01       0.1        0          0          100        OUTLET    
105              0.01       0.1        0          0          100        OUTLET    
106              0.01       0.1        0          0          100        OUTLET    
107              0.01       0.1        0          0          100        OUTLET    
108              0.01       0.1        0          0          100        OUTLET    
109              0.01       0.1        0          0          100        OUTLET    
110              0.01       0.1        0          0          100        OUTLET    
111              0.01       0.1        0          0          100        OUTLET    
112              0.01       0.1        0          0          100        OUTLET    
113              0.01       0.1        0          0          100        OUTLET    
114              0.01       0.1        0          0          100        OUTLET    
115              0.01       0.1        0          0          100        OUTLET    
116              0.01       0.1        0          0          100        OUTLET    
117              0.01       0.1        0          0          100        OUTLET    
118              0.01       0.1        0          0          100        OUTLET    
119              0.01       0.1        0          0          100        OUTLET    
120              0.01       0.1        0          0          100        OUTLET    
121              0.01       0.1        0          0          100        OUTLET    
122              0.01       0.1        0          0          100        OUTLET    
123              0.01       0.1        0          0          100        OUTLET    
124              0.01       0.1        0          0          100        OUTLET    
125              0.01       0.1        0          0          100        OUTLET    
126              0.01       0.1        0          0          100        OUTLET    
127              0.01       0.1        0          0          100        OUTLET    
128              0.01       0.1        0          0          100        OUTLET    
129              0.01       0.1        0          0          100        OUTLET    
130              0.01       0.1        0          0          100        OUTLET    
131              0.01       0.1        0          0          100        OUTLET    
132              0.01       0.1        0          0          100        OUTLET    
133              0.01       0.1        0          0          100        OUTLET    
134              0.01       0.1        0          0          100        OUTLET    
135              0.01       0.1        0          0          100        OUTLET    
136              0.01       0.1        0          0          100        OUTLET    
137              0.01       0.1        0          0          100        OUTLET    
138              0.01       0.1        0          0          100        OUTLET    
139              0.01       0.1        0          0          100        OUTLET    
140              0.01       0.1        0          0          100        OUTLET    
141              0.01       0.1        0          0          100        OUTLET    
142              0.01       0.1        0          0          100        OUTLET    
143              0.01       0.1        0          0          100        OUTLET    
144              0.01       0.1        0          0          100        OUTLET    
145              0.01       0.1        0          0          100        OUTLET    
146              0.01       0.1        0          0          100        OUTLET    
147              0.01       0.1        0          0          100        OUTLET    
148              0.01       0.1        0          0          100        OUTLET    
149              0.01       0.1        0          0          100        OUTLET    
150              0.01       0.1        0          0          100        OUTLET    
151              0.01       0.1        0          0          100        OUTLET    
152              0.01       0.1        0          0          100        OUTLET    
153              0.01       0.1        0          0          100        OUTLET    
154              0.01       0.1        0          0          100        OUTLET    
155              0.01       0.1        0          0          100        OUTLET    
156              0.01       0.1        0          0          100        OUTLET    
157              0.01       0.1        0          0          100        OUTLET    
158              0.01       0.1        0          0          100        OUTLET    
159              0.01       0.1        0          0          100        OUTLET    
160              0.01       0.1        0          0          100        OUTLET    
161              0.01       0.1        0          0          100        OUTLET    
162              0.01       0.1        0          0          100        OUTLET    
163              0.01       0.1        0          0          100        OUTLET    
164              0.01       0.1        0          0          100        OUTLET    
165              0.01       0.1        0          0          100        OUTLET    
166              0.01       0.1        0          0          100        OUTLET    
167              0.01       0.1        0          0          100        OUTLET    
168              0.01       0.1        0          0          100        OUTLET    
169              0.01       0.1        0          0          100        OUTLET    
170              0.01       0.1        0          0          100        OUTLET    
171              0.01       0.1        0          0          100        OUTLET    
172              0.01       0.1        0          0          100        OUTLET    
173              0.01       0.1        0          0          100        OUTLET    
174              0.01       0.1        0          0          100        OUTLET    
175              0.01       0.1        0          0          100        OUTLET    
176              0.01       0.1        0          0          100        OUTLET    
177              0.01       0.1        0          0          100        OUTLET    
178              0.01       0.1        0          0          100        OUTLET    
179              0.01       0.1        0          0          100        OUTLET    
180              0.01       0.1        0          0          100        OUTLET    

[INFILTRATION]
;;Subcatchment   Param1     Param2     Param3     Param4     Param5    
;;-------------- ---------- ---------- ---------- ---------- ----------
91               3.5        0.5        0.35       7          0         
92               3.5        0.5        0.35       7          0         
93               3.5        0.5        0.35       7          0         
94               3.5        0.5        0.35       7          0         
95               3.5        0.5        0.35       7          0         
96               3.5        0.5        0.35       7          0         
97               3.5        0.5        0.35       7          0         
98               3.5        0.5        0.35       7          0         
99               3.5        0.5        0.35       7          0         
100              3.5        0.5        0.35       7          0         
101              3.5        0.5        0.35       7          0         
102              3.5        0.5        0.35       7          0         
103              3.5        0.5        0.35       7          0         
104              3.5        0.5        0.35       7          0         
105              3.5        0.5        0.35       7          0         
106              3.5        0.5        0.35       7          0         
107              3.5        0.5        0.35       7          0         
108              3.5        0.5        0.35       7          0         
109              3.5        0.5        0.35       7          0         
110              3.5        0.5        0.35       7          0         
111              3.5        0.5        0.35       7          0         
112              3.5        0.5        0.35       7          0         
113              3.5        0.5        0.35       7          0         
114              3.5        0.5        0.35       7          0         
115              3.5        0.5        0.35       7          0         
116              3.5        0.5        0.35       7          0         
117              3.5        0.5        0.35       7          0         
118              3.5        0.5        0.35       7          0         
119              3.5        0.5        0.35       7          0         
120              3.5        0.5        0.35       7          0         
121              3.5        0.5        0.35       7          0         
122              3.5        0.5        0.35       7          0         
123              3.5        0.5        0.35       7          0         
124              3.5        0.5        0.35       7          0         
125              3.5        0.5        0.35       7          0         
126              3.5        0.5        0.35       7          0         
127              3.5        0.5        0.35       7          0         
128              3.5        0.5        0.35       7          0         
129              3.5        0.5        0.35       7          0         
130              3.5        0.5        0.35       7          0         
131              3.5        0.5        0.35       7          0         
132              3.5        0.5        0.35       7          0         
133              3.5        0.5        0.35       7          0         
134              3.5        0.5        0.35       7          0         
135              3.5        0.5        0.35       7          0         
136              3.5        0.5        0.35       7          0         
137              3.5        0.5        0.35       7          0         
138              3.5        0.5        0.35       7          0         
139              3.5        0.5        0.35       7          0         
140              3.5        0.5        0.35       7          0         
141              3.5        0.5        0.35       7          0         
142              3.5        0.5        0.35       7          0         
143              3.5        0.5        0.35       7          0         
144              3.5        0.5        0.35       7          0         
145              3.5        0.5        0.35       7          0         
146              3.5        0.5        0.35       7          0         
147              3.5        0.5        0.35       7          0         
148              3.5        0.5        0.35       7          0         
149              3.5        0.5        0.35       7          0         
150              3.5        0.5        0.35       7          0         
151              3.5        0.5        0.35       7          0         
152              3.5        0.5        0.35       7          0         
153              3.5        0.5        0.35       7          0         
154              3.5        0.5        0.35       7          0         
155              3.5        0.5        0.35       7          0         
156              3.5        0.5        0.35       7          0         
157              3.5        0.5        0.35       7          0         
158              3.5        0.5        0.35       7          0         
159              3.5        0.5        0.35       7          0         
160              3.5        0.5        0.35       7          0         
161              3.5        0.5        0.35       7          0         
162              3.5        0.5        0.35       7          0         
163              3.5        0.5        0.35       7          0         
164              3.5        0.5        0.35       7          0         
165              3.5        0.5        0.35       7          0         
166              3.5        0.5        0.35       7          0         
167              3.5        0.5        0.35       7          0         
168              3.5        0.5        0.35       7          0         
169              3.5        0.5        0.35       7          0         
170              3.5        0.5        0.35       7          0         
171              3.5        0.5        0.35       7          0         
172              3.5        0.5        0.35       7          0         
173              3.5        0.5        0.35       7          0         
174              3.5        0.5        0.35       7          0         
175              3.5        0.5        0.35       7          0         
176              3.5        0.5        0.35       7          0         
177              3.5        0.5        0.35       7          0         
178              3.5        0.5        0.35       7          0         
179              3.5        0.5        0.35       7          0         
180              3.5        0.5        0.35       7          0         

[JUNCTIONS]
;;Name           Elevation  MaxDepth   InitDepth  SurDepth   Aponded   
;;-------------- ---------- ---------- ---------- ---------- ----------
183              115.5      20         0          0          0         
185              110        20         0          0          0         
186              100        20         0          0          0         
194              130        20         0          0          0         
195              131        20         0          0          0         
196              132        20         0          0          0         
197              133        20         0          0          0         
198              134        20         0          0          0         
199              135        20         0          0          0         
200              136        20         0          0          0         
201              137        20         0          0          0         
202              138        20         0          0          0         
204              123        20         0          0          0         
205              124        20         0          0          0         
209              130        20         0          0          0         
210              131        20         0          0          0         
211              132        20         0          0          0         
212              133        20         0          0          0         
213              134        20         0          0          0         
214              135        20         0          0          0         
215              136        20         0          0          0         
216              137        20         0          0          0         
217              125        20         0          0          0         
218              126        20         0          0          0         
219              127        20         0          0          0         
220              128        20         0          0          0         

[OUTFALLS]
;;Name           Elevation  Type       Stage Data       Gated    Route To        
;;-------------- ---------- ---------- ---------------- -------- ----------------
184              95         FREE                        NO                       

[STORAGE]
;;Name           Elev.    MaxDepth   InitDepth  Shape      Curve Name/Params            N/A      Fevap    Psi      Ksat     IMD     
;;-------------- -------- ---------- ----------- ---------- ---------------------------- -------- --------          -------- --------
1                149.25   20         0          TABULAR    DitchC_StdStor               0        0       
2                149.25   20         0          TABULAR    DitchC_StdStor               0        0       
3                149.25   20         0          TABULAR    DitchC_StdStor               0        0       
4                146      20         0          TABULAR    DitchC_StdStor               0        0       
5                146      20         0          TABULAR    DitchC_StdStor               0        0       
6                149.25   20         0          TABULAR    DitchC_StdStor               0        0       
7                149.25   20         0          TABULAR    DitchC_StdStor               0        0       
8                146      20         0          TABULAR    DitchC_StdStor               0        0       
9                146      20         0          TABULAR    DitchC_StdStor               0        0       