[TITLE]
;;Project Title/Notes

[OPTIONS]
;;Option             Value
FLOW_UNITS           CFS
INFILTRATION         HORTON
FLOW_ROUTING         DYNWAVE
LINK_OFFSETS         DEPTH
MIN_SLOPE            0
ALLOW_PONDING        NO
SKIP_STEADY_STATE    NO

START_DATE           03/03/2011
START_TIME           00:00:00
REPORT_START_DATE    03/03/2011
REPORT_START_TIME    00:00:00
END_DATE             03/09/2011
END_TIME             00:00:00
SWEEP_START          01/01
SWEEP_END            12/31
DRY_DAYS             0
REPORT_STEP          01:00:00
WET_STEP             01:00:00
DRY_STEP             01:00:00
ROUTING_STEP         0:00:30 
RULE_STEP            00:00:00

INERTIAL_DAMPING     NONE
NORMAL_FLOW_LIMITED  BOTH
FORCE_MAIN_EQUATION  H-W
VARIABLE_STEP        0.75
LENGTHENING_STEP     0
MIN_SURFAREA         12.566
MAX_TRIALS           8
HEAD_TOLERANCE       0.005
SYS_FLOW_TOL         5
LAT_FLOW_TOL         5
MINIMUM_STEP         0.5
THREADS              1

[EVAPORATION]
;;Data Source    Parameters
;;-------------- ----------------
CONSTANT         0.0
DRY_ONLY         NO

[JUNCTIONS]
;;Name           Elevation  MaxDepth   InitDepth  SurDepth   Aponded   
;;-------------- ---------- ---------- ---------- ---------- ----------
2                -8         0          0          0          0         
4                31.5       0          0          0          0         
5                44         0          0          0          0         
6                43.75      0          0          0          0         
7                62.5       0          0          0          0         
8                81.25      0          0          0          0         

[OUTFALLS]
;;Name           Elevation  Type       Stage Data       Gated    Route To        
;;-------------- ---------- ---------- ---------------- -------- ----------------
1                -16        TIMESERIES BuffaloDSStage   NO                       

[STORAGE]
;;Name           Elev.    MaxDepth   InitDepth  Shape      Curve Name/Params            N/A      Fevap    Psi      Ksat     IMD     
;;-------------- -------- ---------- ----------- ---------- ---------------------------- -------- --------          -------- --------
3                25       110        0          TABULAR    AllensLanding                0        0       

[CONDUITS]
;;Name           From Node        To Node          Length     Roughness  InOffset   OutOffset  InitFlow   MaxFlow   
;;-------------- ---------------- ---------------- ---------- ---------- ---------- ---------- ---------- ----------
1                8                7                2500       0.035      0          0          0          0         
2                7                6                2500       0.035      0          0          0          0         
3                6                3                2500       0.035      0          0          0          0         
4                5                4                2500       0.035      0          0          0          0         
5                4                3                2500       0.035      0          0          0          0         
6                3                2                2500       0.035      0          0          0          0         
7                2                1                2500       0.035      0          0          0          0         

[XSECTIONS]
;;Link           Shape        Geom1            Geom2      Geom3      Geom4      Barrels    Culvert   
;;-------------- ------------ ---------------- ---------- ---------- ---------- ---------- ----------
1                IRREGULAR    WhiteOakUpstream 0          0          0          1                    
2                IRREGULAR    WhiteOakUpstream 0          0          0          1                    
3                IRREGULAR    WhiteOakUpstream 0          0          0          1                    
4                IRREGULAR    BuffaloUpstream  0          0          0          1                    
5                IRREGULAR    BuffaloUpstream  0          0          0          1                    
6                IRREGULAR    BuffaloBayouDownstream 0          0          0          1                    
7                IRREGULAR    BuffaloBayouDownstream 0          0          0          1                    

[TRANSECTS]
;;Transect Data in HEC-2 format
;
NC 0.01     0.01     0.01    
X1 BuffaloUpstream   89       4879.4   5159.2   0.0      0.0      0.0      0.0      0.0     
GR 46.74    3604.2   46.24    3694.2   43.24    3774.2   41.64    3804.2   40.44    3944.2  
GR 38.64    4106.5   36.54    4467.3   35.74    4517.3   36.24    4547.3   35.14    4657.3  
GR 36.54    4727.3   36.42    4737.1   35.81    4786     35.54    4807.3   35.16    4812.69 
GR 35.16    4812.8   35.15    4812.91  34.84    4817.3   34.54    4818.7   32.74    4828.7  
GR 30.14    4838.7   34.79    4851.7   34.78    4851.8   33.99    4869.2   29.42    4879.4  
GR 28.29    4881.9   28.25    4882     28.2     4882.11  28.16    4882.2   17.8     4905.3  
GR 10.01    4921.7   8.95     4926     8.93     4926.1   8.3      4933.4   11.5     4933.7  
GR 8.13     4934.6   6.84     4937.4   2.25     4947.4   1.17     4956     0.35     4957.9  
GR -3       4965.2   -7.73    4983.3   -9.93    4992.6   -10.52   4996.3   -11.52   5002.5  
GR -5.95    5020.1   -3.96    5027.5   -2.98    5032     -2.92    5032.2   -1.94    5035.5  
GR 0.34     5042     2.14     5046.9   5.42     5056.7   17.19    5090.6   22.54    5106    
GR 22.71    5108.9   23.01    5119.5   22.72    5133     23.7     5138.4   23.95    5139.79 
GR 23.97    5139.9   23.99    5140.01  26.63    5154.6   26.62    5154.7   26       5159.2  
GR 22.14    5187.6   25.44    5188.7   28.64    5198.7   33.54    5218.7   34.74    5225    
GR 40.24    5245     40.43    5261.2   40.43    5261.29  40.43    5261.4   40.43    5261.5  
GR 40.94    5305     40.34    5326.9   40.73    5365.9   40.74    5366.9   40.74    5396.9  
GR 41.54    5416.9   41.44    5426.9   40.44    5436.8   39.54    5466.8   42.34    5626.8  
GR 44.74    5666.8   45.64    5706.8   47.24    5768     47.44    5828    
;
NC 0.01     0.01     0.01    
X1 BuffaloBayouDownstream  38       4708.8   5116.8   0.0      0.0      0.0      0.0      0.0     
GR 42.1     3444.4   38.8     3584.4   38.1     3604.4   38.1     3654.4   31.9     3774.4  
GR 31.4     3814.4   34       4134.4   35.2     4164.4   34.3     4204.4   35.3     4234.4  
GR 34.8     4304.4   35.9     4334.4   33.6     4364.4   33       4394.4   30.3     4414.4  
GR 29.6     4424.4   30.3     4434.4   35.9     4464.4   34.6     4608.8   32       4708.8  
GR 32.62    4730.2   26.29    4806.4   22.6     4879.1   0.07     4930.6   -9.41    4945.8  
GR -16.14   4996     -15.3    5029.6   -0.94    5069.5   12.41    5086.1   21.32    5102.5  
GR 32.62    5116.8   32.34    5127.1   31.8     5128.8   32.2     5148.8   36.6     5158.8  
GR 41.7     5168.8   47.5     5178.8   48.9     5188.8  
;
NC 0.01     0.01     0.01    
X1 WhiteOakUpstream  122      4477.7   5292.4   0.0      0.0      0.0      0.0      0.0     
GR 50.48    4247.7   48.13    4257.7   45.44    4267.7   41.1     4277.7   37.37    4287.7  
GR 33.89    4297.7   32.78    4307.7   32.5     4317.7   32.54    4327.7   32.25    4337.7  
GR 31.64    4347.7   30.49    4357.7   30.32    4367.7   31.14    4377.7   36.41    4397.7  
GR 38.57    4407.7   39.65    4417.7   40.3     4427.7   40.71    4467.7   40.4     4477.7  
GR 38.43    4487.7   36.25    4497.7   33.65    4507.7   30.79    4517.7   28.18    4527.7  
GR 23.55    4547.7   21.52    4557.7   20.14    4567.7   19.23    4577.7   18.82    4587.7  
GR 16.53    4617.7   15.86    4651.6   14.61    4731.6   16.1     4801.6   16.11    4851.6  
GR 15.17    4893.6   15.01    4903.6   13.21    4935.3   12.24    4947.51  12.14    4949.28 
GR 10.77    4960.01  10.2     4963.39  9.07     4967.88  -0.3     4982.44  -1.72    4984.71 
GR -2.47    4986.11  -2.94    4987.24  -3.18    4992.7   -3.3     4993.75  -4.3     5000    
GR -4.1     5000.86  -3.99    5001.13  -3.29    5003.39  -3.11    5008.5   -1.91    5010.89 
GR -0.74    5013.03  2.47     5019.05  3.92     5021.77  5.69     5025.43  5.79     5026.05 
GR 7.19     5032     8.14     5035.85  10.81    5043.6   13.97    5063.6   14.42    5073.6  
GR 14.17    5083.6   14.2     5093.6   15.48    5103.6   20.42    5123.6   28.69    5153.6  
GR 30.96    5163.6   31.69    5173.6   29.67    5212.4   29.3     5222.4   29.16    5232.4  
GR 29.62    5242.4   31.89    5252.4   35.02    5262.4   37.34    5272.4   41.72    5292.4  
GR 45.74    5312.4   47.16    5322.4   47.59    5332.4   47.75    5342.4   47.28    5362.4  
GR 44.52    5382.4   43.7     5392.4   43.35    5402.4   45.98    5422.4   46.48    5432.4  
GR 43.71    5492.4   43.02    5502.4   39.7     5532.4   39.06    5542.4   39.08    5552.4  
GR 39.32    5562.4   40.47    5582.4   38.58    5722.4   39.05    5742.4   38.24    5782.4  
GR 38.03    5822.4   38.19    5832.4   38.61    5842.4   39.29    5852.4   39.5     5862.4  
GR 39.41    5872.4   40.78    5942.4   40.39    5972.4   40.47    5982.4   40.98    5992.4  
GR 42.24    6112.4   42.13    6122.4   41.71    6132.4   41.44    6202.4   42.09    6222.4  
GR 42.14    6242.4   41.96    6252.4   42.11    6262.4   42.53    6272.4   43.41    6392.4  
GR 46.12    6472.4   46.47    6521.7  

[INFLOWS]
;;Node           Constituent      Time Series      Type     Mfactor  Sfactor  Baseline Pattern
;;-------------- ---------------- ---------------- -------- -------- -------- -------- --------
5                FLOW             ""               FLOW     1.0      1.0      1200    
8                FLOW             WhiteOakHydrograph FLOW     1.0      1.0      12000   

[CURVES]
;;Name           Type       X-Value    Y-Value   
;;-------------- ---------- ---------- ----------
AllensLanding    Storage    0          43560     
AllensLanding               10         45000     
AllensLanding               20         50000     
AllensLanding               30         55000     
AllensLanding               40         60000     
AllensLanding               50         70000     
AllensLanding               60         80000     
AllensLanding               70         90000     
AllensLanding               90         120000    
AllensLanding               100        240000    
AllensLanding               110        360000    

[TIMESERIES]
;;Name           Date       Time       Value     
;;-------------- ---------- ---------- ----------
WhiteOakHydrograph            0          228       
WhiteOakHydrograph            0.5        197       
WhiteOakHydrograph            1          199       
WhiteOakHydrograph            1.5        203       
WhiteOakHydrograph            2          195       
WhiteOakHydrograph            2.5        192       
WhiteOakHydrograph            3          189       
WhiteOakHydrograph            3.5        173       
WhiteOakHydrograph            4          168       
WhiteOakHydrograph            4.5        161       
WhiteOakHydrograph            5          156       
WhiteOakHydrograph            5.5        156       
WhiteOakHydrograph            6          168       
WhiteOakHydrograph            6.5        186       
WhiteOakHydrograph            7          250       
WhiteOakHydrograph            7.5        307       
WhiteOakHydrograph            8          406       
WhiteOakHydrograph            8.5        506       
WhiteOakHydrograph            9          580       
WhiteOakHydrograph            9.5        641       
WhiteOakHydrograph            10         653       
WhiteOakHydrograph            10.5       758       
WhiteOakHydrograph            11         916       
WhiteOakHydrograph            11.5       1020      
WhiteOakHydrograph            12         1060      
WhiteOakHydrograph            12.5       986       
WhiteOakHydrograph            13         945       
WhiteOakHydrograph            13.5       880       
WhiteOakHydrograph            14         842       
WhiteOakHydrograph            14.5       842       
WhiteOakHydrograph            15         831       
WhiteOakHydrograph            15.5       862       
WhiteOakHydrograph            16         982       
WhiteOakHydrograph            16.5       1300      
WhiteOakHydrograph            17         2510      
WhiteOakHydrograph            17.5       5020      
WhiteOakHydrograph            18         7110      
WhiteOakHydrograph            18.5       8940      
WhiteOakHydrograph            30         9110      
WhiteOakHydrograph            30.5       8160      
WhiteOakHydrograph            31         7270      
WhiteOakHydrograph            31.5       6400      
WhiteOakHydrograph            32         5570      
WhiteOakHydrograph            32.5       4840      
WhiteOakHydrograph            33         4240      
WhiteOakHydrograph            33.5       3710      
WhiteOakHydrograph            34         3270      
WhiteOakHydrograph            34.5       2870      
WhiteOakHydrograph            35         2590      
WhiteOakHydrograph            35.5       2300      
WhiteOakHydrograph            36         2130      
WhiteOakHydrograph            36.5       1990      
WhiteOakHydrograph            37         1890      
WhiteOakHydrograph            37.5       1790      
WhiteOakHydrograph            38         1730      
WhiteOakHydrograph            38.5       1650      
WhiteOakHydrograph            39         1620      
WhiteOakHydrograph            39.5       1570      
WhiteOakHydrograph            40         1510      
WhiteOakHydrograph            40.5       1450      
WhiteOakHydrograph            41         1400      
WhiteOakHydrograph            41.5       1350      
WhiteOakHydrograph            42         1300      
WhiteOakHydrograph            42.5       1280      
WhiteOakHydrograph            43         1220      
WhiteOakHydrograph            43.5       1170      
WhiteOakHydrograph            44         1130      
WhiteOakHydrograph            44.5       1080      
WhiteOakHydrograph            45         1060      
WhiteOakHydrograph            45.5       1030      
WhiteOakHydrograph            46         1010      
WhiteOakHydrograph            46.5       967       
WhiteOakHydrograph            47         948       
WhiteOakHydrograph            47.5       905       
WhiteOakHydrograph            48         880       
WhiteOakHydrograph            48.5       842       
WhiteOakHydrograph            49         842       
WhiteOakHydrograph            49.5       808       
WhiteOakHydrograph            50         775       
WhiteOakHydrograph            50.5       784       
WhiteOakHydrograph            51         765       
WhiteOakHydrograph            51.5       755       
WhiteOakHydrograph            52         742       
WhiteOakHydrograph            52.5       723       
WhiteOakHydrograph            53         701       
WhiteOakHydrograph            53.5       689       
WhiteOakHydrograph            54         665       
WhiteOakHydrograph            54.5       656       
WhiteOakHydrograph            55         647       
WhiteOakHydrograph            55.5       636       
WhiteOakHydrograph            56         618       
WhiteOakHydrograph            56.5       596       
WhiteOakHydrograph            57         585       
WhiteOakHydrograph            57.5       574       
WhiteOakHydrograph            58         558       
WhiteOakHydrograph            58.5       539       
WhiteOakHydrograph            59         536       
WhiteOakHydrograph            59.5       521       
WhiteOakHydrograph            60         506       
WhiteOakHydrograph            60.5       503       
WhiteOakHydrograph            61         491       
WhiteOakHydrograph            61.5       485       
WhiteOakHydrograph            62         482       
WhiteOakHydrograph            62.5       468       
WhiteOakHydrograph            63         462       
WhiteOakHydrograph            63.5       451       
WhiteOakHydrograph            64         438       
WhiteOakHydrograph            64.5       435       
WhiteOakHydrograph            65         435       
WhiteOakHydrograph            65.5       435       
WhiteOakHydrograph            66         438       
WhiteOakHydrograph            66.5       448       
WhiteOakHydrograph            67         448       
WhiteOakHydrograph            67.5       435       
WhiteOakHydrograph            68         419       
WhiteOakHydrograph            68.5       391       
WhiteOakHydrograph            69         374       
WhiteOakHydrograph            69.5       369       
WhiteOakHydrograph            70         361       
WhiteOakHydrograph            70.5       355       
WhiteOakHydrograph            71         353       
WhiteOakHydrograph            71.5       342       
WhiteOakHydrograph            72         340       
WhiteOakHydrograph            72.5       335       
WhiteOakHydrograph            73         337       
WhiteOakHydrograph            73.5       345       
WhiteOakHydrograph            74         342       
WhiteOakHydrograph            74.5       337       
WhiteOakHydrograph            75         337       
WhiteOakHydrograph            75.5       331       
WhiteOakHydrograph            76         327       
WhiteOakHydrograph            76.5       325       
WhiteOakHydrograph            77         320       
WhiteOakHydrograph            77.5       304       
WhiteOakHydrograph            78         294       
WhiteOakHydrograph            78.5       299       
WhiteOakHydrograph            79         268       
WhiteOakHydrograph            79.5       260       
WhiteOakHydrograph            80         250       
WhiteOakHydrograph            80.5       239       
WhiteOakHydrograph            81         223       
;
BuffaloBayouUpstream            0          95        
BuffaloBayouUpstream            0.25       104       
BuffaloBayouUpstream            0.5        114       
BuffaloBayouUpstream            0.75       116       
BuffaloBayouUpstream            1          113       
BuffaloBayouUpstream            1.25       141       
BuffaloBayouUpstream            1.5        126       
BuffaloBayouUpstream            1.75       117       
BuffaloBayouUpstream            2          96        
BuffaloBayouUpstream            2.25       98        
BuffaloBayouUpstream            2.5        98        
BuffaloBayouUpstream            2.75       102       
BuffaloBayouUpstream            3          117       
BuffaloBayouUpstream            3.25       94        
BuffaloBayouUpstream            3.5        97        
BuffaloBayouUpstream            3.75       104       
BuffaloBayouUpstream            4          103       
BuffaloBayouUpstream            4.25       113       
BuffaloBayouUpstream            4.5        115       
BuffaloBayouUpstream            4.75       117       
BuffaloBayouUpstream            5          116       
BuffaloBayouUpstream            5.25       99        
BuffaloBayouUpstream            5.5        108       
BuffaloBayouUpstream            5.75       110       
BuffaloBayouUpstream            6          92        
BuffaloBayouUpstream            6.25       99        
BuffaloBayouUpstream            6.5        86        
BuffaloBayouUpstream            6.75       106       
BuffaloBayouUpstream            7          109       
BuffaloBayouUpstream            7.25       95        
BuffaloBayouUpstream            7.5        106       
BuffaloBayouUpstream            7.75       99        
BuffaloBayouUpstream            8          99        
BuffaloBayouUpstream            8.25       99        
BuffaloBayouUpstream            8.5        98        
BuffaloBayouUpstream            8.75       98        
BuffaloBayouUpstream            9          98        
BuffaloBayouUpstream            9.25       100       
BuffaloBayouUpstream            9.5        106       
BuffaloBayouUpstream            9.75       125       
BuffaloBayouUpstream            10         141       
BuffaloBayouUpstream            10.25      138       
BuffaloBayouUpstream            10.5       151       
BuffaloBayouUpstream            10.75      184       
BuffaloBayouUpstream            11         262       
BuffaloBayouUpstream            11.25      369       
BuffaloBayouUpstream            11.5       524       
BuffaloBayouUpstream            11.75      689       
BuffaloBayouUpstream            12         898       
BuffaloBayouUpstream            12.25      1200      
BuffaloBayouUpstream            12.5       1390      
BuffaloBayouUpstream            12.75      1640      
BuffaloBayouUpstream            13         2060      
BuffaloBayouUpstream            13.25      3170      
BuffaloBayouUpstream            13.5       4570      
BuffaloBayouUpstream            13.75      5670      
BuffaloBayouUpstream            14         6520      
BuffaloBayouUpstream            14.25      7600      
BuffaloBayouUpstream            14.5       8420      
BuffaloBayouUpstream            14.75      9290      
BuffaloBayouUpstream            15         9754      
BuffaloBayouUpstream            15.25      10242     
BuffaloBayouUpstream            15.5       10754     
BuffaloBayouUpstream            15.75      11292     
BuffaloBayouUpstream            16         11856     
BuffaloBayouUpstream            16.25      11708     
BuffaloBayouUpstream            16.5       11562     
BuffaloBayouUpstream            16.75      11417     
BuffaloBayouUpstream            17         11274     
BuffaloBayouUpstream            17.25      11133     
BuffaloBayouUpstream            17.5       10994     
BuffaloBayouUpstream            17.75      10857     
BuffaloBayouUpstream            18         10721     
BuffaloBayouUpstream            18.25      10587     
BuffaloBayouUpstream            18.5       10455     
BuffaloBayouUpstream            18.75      10324     
BuffaloBayouUpstream            19         10195     
BuffaloBayouUpstream            19.25      10068     
BuffaloBayouUpstream            19.5       9942      
BuffaloBayouUpstream            19.75      9817      
BuffaloBayouUpstream            20         9910      
BuffaloBayouUpstream            20.25      9520      
BuffaloBayouUpstream            20.5       9090      
BuffaloBayouUpstream            20.75      8600      
BuffaloBayouUpstream            21         8140      
BuffaloBayouUpstream            21.25      7700      
BuffaloBayouUpstream            21.5       7250      
BuffaloBayouUpstream            21.75      6790      
BuffaloBayouUpstream            22         6400      
BuffaloBayouUpstream            22.25      6030      
BuffaloBayouUpstream            22.5       5690      
BuffaloBayouUpstream            22.75      5400      
BuffaloBayouUpstream            23         5100      
BuffaloBayouUpstream            23.25      4900      
BuffaloBayouUpstream            23.5       4690      
BuffaloBayouUpstream            23.75      4510      
BuffaloBayouUpstream            24         4330      
BuffaloBayouUpstream            24.25      4170      
BuffaloBayouUpstream            24.5       4010      
BuffaloBayouUpstream            24.75      3860      
BuffaloBayouUpstream            25         3720      
BuffaloBayouUpstream            25.25      3570      
BuffaloBayouUpstream            25.5       3450      
BuffaloBayouUpstream            25.75      3320      
BuffaloBayouUpstream            26         3190      
BuffaloBayouUpstream            26.25      3090      
BuffaloBayouUpstream            26.5       2980      
BuffaloBayouUpstream            26.75      2870      
BuffaloBayouUpstream            27         2780      
BuffaloBayouUpstream            27.25      2680      
BuffaloBayouUpstream            27.5       2580      
BuffaloBayouUpstream            27.75      2500      
BuffaloBayouUpstream            28         2420      
BuffaloBayouUpstream            28.25      2300      
BuffaloBayouUpstream            28.5       2270      
BuffaloBayouUpstream            28.75      2210      
BuffaloBayouUpstream            29         2140      
BuffaloBayouUpstream            29.25      2070      
BuffaloBayouUpstream            29.5       2010      
BuffaloBayouUpstream            29.75      1950      
BuffaloBayouUpstream            30         1900      
BuffaloBayouUpstream            30.25      1840      
BuffaloBayouUpstream            30.5       1790      
BuffaloBayouUpstream            30.75      1740      
BuffaloBayouUpstream            31         1700      
BuffaloBayouUpstream            31.25      1650      
BuffaloBayouUpstream            31.5       1610      
BuffaloBayouUpstream            31.75      1570      
BuffaloBayouUpstream            32         1520      
BuffaloBayouUpstream            32.25      1490      
BuffaloBayouUpstream            32.5       1460      
BuffaloBayouUpstream            32.75      1420      
BuffaloBayouUpstream            33         1390      
BuffaloBayouUpstream            33.25      1350      
BuffaloBayouUpstream            33.5       1320      
BuffaloBayouUpstream            33.75      1290      
BuffaloBayouUpstream            34         1260      
BuffaloBayouUpstream            34.25      1230      
BuffaloBayouUpstream            34.5       1200      
BuffaloBayouUpstream            34.75      1180      
BuffaloBayouUpstream            35         1150      
BuffaloBayouUpstream            35.25      1100      
BuffaloBayouUpstream            35.5       1100      
BuffaloBayouUpstream            35.75      1080      
BuffaloBayouUpstream            36         1060      
BuffaloBayouUpstream            36.25      1030      
BuffaloBayouUpstream            36.5       1000      
BuffaloBayouUpstream            36.75      999       
BuffaloBayouUpstream            37         981       
BuffaloBayouUpstream            37.25      960       
BuffaloBayouUpstream            37.5       939       
BuffaloBayouUpstream            37.75      918       
BuffaloBayouUpstream            38         898       
BuffaloBayouUpstream            38.25      881       
BuffaloBayouUpstream            38.5       869       
BuffaloBayouUpstream            38.75      849       
BuffaloBayouUpstream            39         829       
BuffaloBayouUpstream            39.25      817       
BuffaloBayouUpstream            39.5       802       
BuffaloBayouUpstream            39.75      786       
BuffaloBayouUpstream            40         775       
BuffaloBayouUpstream            40.25      759       
BuffaloBayouUpstream            40.5       752       
BuffaloBayouUpstream            40.75      744       
BuffaloBayouUpstream            41         729       
BuffaloBayouUpstream            41.25      711       
BuffaloBayouUpstream            41.5       700       
BuffaloBayouUpstream            41.75      689       
BuffaloBayouUpstream            42         678       
BuffaloBayouUpstream            42.25      671       
BuffaloBayouUpstream            42.5       664       
BuffaloBayouUpstream            42.75      652       
BuffaloBayouUpstream            43         645       
BuffaloBayouUpstream            43.25      637       
BuffaloBayouUpstream            43.5       629       
BuffaloBayouUpstream            43.75      614       
BuffaloBayouUpstream            44         607       
BuffaloBayouUpstream            44.25      599       
BuffaloBayouUpstream            44.5       588       
BuffaloBayouUpstream            44.75      581       
BuffaloBayouUpstream            45         570       
BuffaloBayouUpstream            45.25      563       
BuffaloBayouUpstream            45.5       556       
BuffaloBayouUpstream            45.75      545       
BuffaloBayouUpstream            46         538       
BuffaloBayouUpstream            46.25      531       
BuffaloBayouUpstream            46.5       524       
BuffaloBayouUpstream            46.75      514       
BuffaloBayouUpstream            47         507       
BuffaloBayouUpstream            47.25      500       
BuffaloBayouUpstream            47.5       493       
BuffaloBayouUpstream            47.75      487       
BuffaloBayouUpstream            48         485       
BuffaloBayouUpstream            48.25      473       
BuffaloBayouUpstream            48.5       467       
BuffaloBayouUpstream            48.75      460       
BuffaloBayouUpstream            49         454       
BuffaloBayouUpstream            49.25      447       
BuffaloBayouUpstream            49.5       441       
BuffaloBayouUpstream            49.75      437       
BuffaloBayouUpstream            50         428       
BuffaloBayouUpstream            50.25      422       
BuffaloBayouUpstream            50.5       415       
BuffaloBayouUpstream            50.75      412       
BuffaloBayouUpstream            51         406       
BuffaloBayouUpstream            51.25      400       
BuffaloBayouUpstream            51.5       394       
BuffaloBayouUpstream            51.75      388       
BuffaloBayouUpstream            52         384       
BuffaloBayouUpstream            52.25      379       
BuffaloBayouUpstream            52.5       373       
BuffaloBayouUpstream            52.75      369       
BuffaloBayouUpstream            53         366       
BuffaloBayouUpstream            53.25      360       