[TITLE]
;;Project Title/Notes

[OPTIONS]
;;Option             Value
FLOW_UNITS           CFS
INFILTRATION         HORTON
FLOW_ROUTING         DYNWAVE
LINK_OFFSETS         DEPTH
MIN_SLOPE            0
ALLOW_PONDING        NO
SKIP_STEADY_STATE    NO

START_DATE           03/03/2011
START_TIME           00:00:00
REPORT_START_DATE    03/03/2011
REPORT_START_TIME    00:00:00
END_DATE             03/09/2011
END_TIME             00:00:00
SWEEP_START          01/01
SWEEP_END            12/31
DRY_DAYS             0
REPORT_STEP          01:00:00
WET_STEP             01:00:00
DRY_STEP             01:00:00
ROUTING_STEP         0:00:30 
RULE_STEP            00:00:00

INERTIAL_DAMPING     PARTIAL
NORMAL_FLOW_LIMITED  BOTH
FORCE_MAIN_EQUATION  H-W
VARIABLE_STEP        0.75
LENGTHENING_STEP     0
MIN_SURFAREA         12.566
MAX_TRIALS           8
HEAD_TOLERANCE       0.005
SYS_FLOW_TOL         5
LAT_FLOW_TOL         5
MINIMUM_STEP         0.5
THREADS              1

[EVAPORATION]
;;Data Source    Parameters
;;-------------- ----------------
CONSTANT         0.0
DRY_ONLY         NO

[JUNCTIONS]
;;Name           Elevation  MaxDepth   InitDepth  SurDepth   Aponded   
;;-------------- ---------- ---------- ---------- ---------- ----------
2                20         0          0          0          0         
4                31.5       0          0          0          0         
5                44         0          0          0          0         
6                43.75      0          0          0          0         
7                62.5       0          0          0          0         
8                81.25      0          0          0          0         

[OUTFALLS]
;;Name           Elevation  Type       Stage Data       Gated    Route To        
;;-------------- ---------- ---------- ---------------- -------- ----------------
1                -16        TIMESERIES DSFlowHydro      NO                       

[STORAGE]
;;Name           Elev.    MaxDepth   InitDepth  Shape      Curve Name/Params            N/A      Fevap    Psi      Ksat     IMD     
;;-------------- -------- ---------- ----------- ---------- ---------------------------- -------- --------          -------- --------
3                25       110        0          TABULAR    AllensLanding                0        0       

[CONDUITS]
;;Name           From Node        To Node          Length     Roughness  InOffset   OutOffset  InitFlow   MaxFlow   
;;-------------- ---------------- ---------------- ---------- ---------- ---------- ---------- ---------- ----------
1                8                7                2500       0.035      0          0          0          0         
2                7                6                2500       0.035      0          0          0          0         
3                6                3                2500       0.035      0          0          0          0         
4                5                4                2500       0.035      0          0          0          0         
5                4                3                2500       0.035      0          0          0          0         
6                3                2                2500       0.035      0          0          0          0         
7                2                1                2500       0.035      0          0          0          0         

[XSECTIONS]
;;Link           Shape        Geom1            Geom2      Geom3      Geom4      Barrels    Culvert   
;;-------------- ------------ ---------------- ---------- ---------- ---------- ---------- ----------
1                IRREGULAR    WhiteOakUpstream 0          0          0          1                    
2                IRREGULAR    WhiteOakUpstream 0          0          0          1                    
3                IRREGULAR    WhiteOakUpstream 0          0          0          1                    
4                IRREGULAR    BuffaloUpstream  0          0          0          1                    
5                IRREGULAR    BuffaloUpstream  0          0          0          1                    
6                IRREGULAR    BuffaloBayouDownstream 0          0          0          1                    
7                IRREGULAR    BuffaloBayouDownstream 0          0          0          1                    

[TRANSECTS]
;;Transect Data in HEC-2 format
;
NC 0.01     0.01     0.01    
X1 BuffaloUpstream   89       4879.4   5159.2   0.0      0.0      0.0      0.0      0.0     
GR 46.74    3604.2   46.24    3694.2   43.24    3774.2   41.64    3804.2   40.44    3944.2  
GR 38.64    4106.5   36.54    4467.3   35.74    4517.3   36.24    4547.3   35.14    4657.3  
GR 36.54    4727.3   36.42    4737.1   35.81    4786     35.54    4807.3   35.16    4812.69 
GR 35.16    4812.8   35.15    4812.91  34.84    4817.3   34.54    4818.7   32.74    4828.7  
GR 30.14    4838.7   34.79    4851.7   34.78    4851.8   33.99    4869.2   29.42    4879.4  
GR 28.29    4881.9   28.25    4882     28.2     4882.11  28.16    4882.2   17.8     4905.3  
GR 10.01    4921.7   8.95     4926     8.93     4926.1   8.3      4933.4   11.5     4933.7  
GR 8.13     4934.6   6.84     4937.4   2.25     4947.4   1.17     4956     0.35     4957.9  
GR -3       4965.2   -7.73    4983.3   -9.93    4992.6   -10.52   4996.3   -11.52   5002.5  
GR -5.95    5020.1   -3.96    5027.5   -2.98    5032     -2.92    5032.2   -1.94    5035.5  
GR 0.34     5042     2.14     5046.9   5.42     5056.7   17.19    5090.6   22.54    5106    
GR 22.71    5108.9   23.01    5119.5   22.72    5133     23.7     5138.4   23.95    5139.79 
GR 23.97    5139.9   23.99    5140.01  26.63    5154.6   26.62    5154.7   26       5159.2  
GR 22.14    5187.6   25.44    5188.7   28.64    5198.7   33.54    5218.7   34.74    5225    
GR 40.24    5245     40.43    5261.2   40.43    5261.29  40.43    5261.4   40.43    5261.5  
GR 40.94    5305     40.34    5326.9   40.73    5365.9   40.74    5366.9   40.74    5396.9  
GR 41.54    5416.9   41.44    5426.9   40.44    5436.8   39.54    5466.8   42.34    5626.8  
GR 44.74    5666.8   45.64    5706.8   47.24    5768     47.44    5828    
;
NC 0.01     0.01     0.01    
X1 BuffaloBayouDownstream  38       4708.8   5116.8   0.0      0.0      0.0      0.0      0.0     
GR 42.1     3444.4   38.8     3584.4   38.1     3604.4   38.1     3654.4   31.9     3774.4  
GR 31.4     3814.4   34       4134.4   35.2     4164.4   34.3     4204.4   35.3     4234.4  
GR 34.8     4304.4   35.9     4334.4   33.6     4364.4   33       4394.4   30.3     4414.4  
GR 29.6     4424.4   30.3     4434.4   35.9     4464.4   34.6     4608.8   32       4708.8  
GR 32.62    4730.2   26.29    4806.4   22.6     4879.1   0.07     4930.6   -9.41    4945.8  
GR -16.14   4996     -15.3    5029.6   -0.94    5069.5   12.41    5086.1   21.32    5102.5  
GR 32.62    5116.8   32.34    5127.1   31.8     5128.8   32.2     5148.8   36.6     5158.8  
GR 41.7     5168.8   47.5     5178.8   48.9     5188.8  
;
NC 0.01     0.01     0.01    
X1 WhiteOakUpstream  122      4477.7   5292.4   0.0      0.0      0.0      0.0      0.0     
GR 50.48    4247.7   48.13    4257.7   45.44    4267.7   41.1     4277.7   37.37    4287.7  
GR 33.89    4297.7   32.78    4307.7   32.5     4317.7   32.54    4327.7   32.25    4337.7  
GR 31.64    4347.7   30.49    4357.7   30.32    4367.7   31.14    4377.7   36.41    4397.7  
GR 38.57    4407.7   39.65    4417.7   40.3     4427.7   40.71    4467.7   40.4     4477.7  
GR 38.43    4487.7   36.25    4497.7   33.65    4507.7   30.79    4517.7   28.18    4527.7  
GR 23.55    4547.7   21.52    4557.7   20.14    4567.7   19.23    4577.7   18.82    4587.7  
GR 16.53    4617.7   15.86    4651.6   14.61    4731.6   16.1     4801.6   16.11    4851.6  
GR 15.17    4893.6   15.01    4903.6   13.21    4935.3   12.24    4947.51  12.14    4949.28 
GR 10.77    4960.01  10.2     4963.39  9.07     4967.88  -0.3     4982.44  -1.72    4984.71 
GR -2.47    4986.11  -2.94    4987.24  -3.18    4992.7   -3.3     4993.75  -4.3     5000    
GR -4.1     5000.86  -3.99    5001.13  -3.29    5003.39  -3.11    5008.5   -1.91    5010.89 
GR -0.74    5013.03  2.47     5019.05  3.92     5021.77  5.69     5025.43  5.79     5026.05 
GR 7.19     5032     8.14     5035.85  10.81    5043.6   13.97    5063.6   14.42    5073.6  
GR 14.17    5083.6   14.2     5093.6   15.48    5103.6   20.42    5123.6   28.69    5153.6  
GR 30.96    5163.6   31.69    5173.6   29.67    5212.4   29.3     5222.4   29.16    5232.4  
GR 29.62    5242.4   31.89    5252.4   35.02    5262.4   37.34    5272.4   41.72    5292.4  
GR 45.74    5312.4   47.16    5322.4   47.59    5332.4   47.75    5342.4   47.28    5362.4  
GR 44.52    5382.4   43.7     5392.4   43.35    5402.4   45.98    5422.4   46.48    5432.4  
GR 43.71    5492.4   43.02    5502.4   39.7     5532.4   39.06    5542.4   39.08    5552.4  
GR 39.32    5562.4   40.47    5582.4   38.58    5722.4   39.05    5742.4   38.24    5782.4  
GR 38.03    5822.4   38.19    5832.4   38.61    5842.4   39.29    5852.4   39.5     5862.4  
GR 39.41    5872.4   40.78    5942.4   40.39    5972.4   40.47    5982.4   40.98    5992.4  
GR 42.24    6112.4   42.13    6122.4   41.71    6132.4   41.44    6202.4   42.09    6222.4  
GR 42.14    6242.4   41.96    6252.4   42.11    6262.4   42.53    6272.4   43.41    6392.4  
GR 46.12    6472.4   46.47    6521.7  

[INFLOWS]
;;Node           Constituent      Time Series      Type     Mfactor  Sfactor  Baseline Pattern
;;-------------- ---------------- ---------------- -------- -------- -------- -------- --------
5                FLOW             BuffaloUpHydro   FLOW     1.0      1.0      1200    
8                FLOW             WhiteOakHydro    FLOW     1.0      1.0      12000   

[CURVES]
;;Name           Type       X-Value    Y-Value   
;;-------------- ---------- ---------- ----------
AllensLanding    Storage    0          43560     
AllensLanding               10         45000     
AllensLanding               20         50000     
AllensLanding               30         55000     
AllensLanding               40         60000     
AllensLanding               50         70000     
AllensLanding               60         80000     
AllensLanding               70         90000     
AllensLanding               90         120000    
AllensLanding               100        240000    
AllensLanding               110        360000    

[TIMESERIES]
;;Name           Date       Time       Value     
;;-------------- ---------- ---------- ----------
BuffaloUpHydro              0          95        
BuffaloUpHydro              0.25       104       
BuffaloUpHydro              0.5        114       
BuffaloUpHydro              0.75       116       
BuffaloUpHydro              1          113       
BuffaloUpHydro              1.25       141       
BuffaloUpHydro              1.5        126       
BuffaloUpHydro              1.75       117       
BuffaloUpHydro              2          96        
BuffaloUpHydro              2.25       98        
BuffaloUpHydro              2.5        98        
BuffaloUpHydro              2.75       102       
BuffaloUpHydro              3          117       
BuffaloUpHydro              3.25       94        
BuffaloUpHydro              3.5        97        
BuffaloUpHydro              3.75       104       
BuffaloUpHydro              4          103       
BuffaloUpHydro              4.25       113       
BuffaloUpHydro              4.5        115       
BuffaloUpHydro              4.75       117       
BuffaloUpHydro              5          116       
BuffaloUpHydro              5.25       99        
BuffaloUpHydro              5.5        108       
BuffaloUpHydro              5.75       110       
BuffaloUpHydro              6          92        
BuffaloUpHydro              6.25       99        
BuffaloUpHydro              6.5        86        
BuffaloUpHydro              6.75       106       
BuffaloUpHydro              7          109       
BuffaloUpHydro              7.25       95        
BuffaloUpHydro              7.5        106       
BuffaloUpHydro              7.75       99        
BuffaloUpHydro              8          99        
BuffaloUpHydro              8.25       99        
BuffaloUpHydro              8.5        98        
BuffaloUpHydro              8.75       98        
BuffaloUpHydro              9          98        
BuffaloUpHydro              9.25       100       
BuffaloUpHydro              9.5        106       
BuffaloUpHydro              9.75       125       
BuffaloUpHydro              10         141       
BuffaloUpHydro              10.25      138       
BuffaloUpHydro              10.5       151       
BuffaloUpHydro              10.75      184       
BuffaloUpHydro              11         262       
BuffaloUpHydro              11.25      369       
BuffaloUpHydro              11.5       524       
BuffaloUpHydro              11.75      689       
BuffaloUpHydro              12         898       
BuffaloUpHydro              12.25      1200      
BuffaloUpHydro              12.5       1390      
BuffaloUpHydro              12.75      1640      
BuffaloUpHydro              13         2060      
BuffaloUpHydro              13.25      3170      
BuffaloUpHydro              13.5       4570      
BuffaloUpHydro              13.75      5670      
BuffaloUpHydro              14         6520      
BuffaloUpHydro              14.25      7600      
BuffaloUpHydro              14.5       8420      
BuffaloUpHydro              14.75      9290      
BuffaloUpHydro              15         9754      
BuffaloUpHydro              15.25      10242     
BuffaloUpHydro              15.5       10754     
BuffaloUpHydro              15.75      11292     
BuffaloUpHydro              16         11856     
BuffaloUpHydro              16.25      11708     
BuffaloUpHydro              16.5       11562     
BuffaloUpHydro              16.75      11417     
BuffaloUpHydro              17         11274     
BuffaloUpHydro              17.25      11133     
BuffaloUpHydro              17.5       10994     
BuffaloUpHydro              17.75      10857     
BuffaloUpHydro              18         10721     
BuffaloUpHydro              18.25      10587     
BuffaloUpHydro              18.5       10455     
BuffaloUpHydro              18.75      10324     
BuffaloUpHydro              19         10195     
BuffaloUpHydro              19.25      10068     
BuffaloUpHydro              19.5       9942      
BuffaloUpHydro              19.75      9817      
BuffaloUpHydro              20         9910      
BuffaloUpHydro              20.25      9520      
BuffaloUpHydro              20.5       9090      
BuffaloUpHydro              20.75      8600      
BuffaloUpHydro              21         8140      
BuffaloUpHydro              21.25      7700      
BuffaloUpHydro              21.5       7250      
BuffaloUpHydro              21.75      6790      
BuffaloUpHydro              22         6400      
BuffaloUpHydro              22.25      6030      
BuffaloUpHydro              22.5       5690      
BuffaloUpHydro              22.75      5400      
BuffaloUpHydro              23         5100      
BuffaloUpHydro              23.25      4900      
BuffaloUpHydro              23.5       4690      
BuffaloUpHydro              23.75      4510      
BuffaloUpHydro              24         4330      
BuffaloUpHydro              24.25      4170      
BuffaloUpHydro              24.5       4010      
BuffaloUpHydro              24.75      3860      
BuffaloUpHydro              25         3720      
BuffaloUpHydro              25.25      3570      
BuffaloUpHydro              25.5       3450      
BuffaloUpHydro              25.75      3320      
BuffaloUpHydro              26         3190      
BuffaloUpHydro              26.25      3090      
BuffaloUpHydro              26.5       2980      
BuffaloUpHydro              26.75      2870      
BuffaloUpHydro              27         2780      
BuffaloUpHydro              27.25      2680      
BuffaloUpHydro              27.5       2580      
BuffaloUpHydro              27.75      2500      
BuffaloUpHydro              28         2420      
BuffaloUpHydro              28.25      2300      
BuffaloUpHydro              28.5       2270      
BuffaloUpHydro              28.75      2210      
BuffaloUpHydro              29         2140      
BuffaloUpHydro              29.25      2070      
BuffaloUpHydro              29.5       2010      
BuffaloUpHydro              29.75      1950      
BuffaloUpHydro              30         1900      
BuffaloUpHydro              30.25      1840      
BuffaloUpHydro              30.5       1790      
BuffaloUpHydro              30.75      1740      
BuffaloUpHydro              31         1700      
BuffaloUpHydro              31.25      1650      
BuffaloUpHydro              31.5       1610      
BuffaloUpHydro              31.75      1570      
BuffaloUpHydro              32         1520      
BuffaloUpHydro              32.25      1490      
BuffaloUpHydro              32.5       1460      
BuffaloUpHydro              32.75      1420      
BuffaloUpHydro              33         1390      
BuffaloUpHydro              33.25      1350      
BuffaloUpHydro              33.5       1320      
BuffaloUpHydro              33.75      1290      
BuffaloUpHydro              34         1260      
BuffaloUpHydro              34.25      1230      
BuffaloUpHydro              34.5       1200      
BuffaloUpHydro              34.75      1180      
BuffaloUpHydro              35         1150      
BuffaloUpHydro              35.25      1100      
BuffaloUpHydro              35.5       1100      
BuffaloUpHydro              35.75      1080      
BuffaloUpHydro              36         1060      
BuffaloUpHydro              36.25      1030      
BuffaloUpHydro              36.5       1000      
BuffaloUpHydro              36.75      999       
BuffaloUpHydro              37         981       
BuffaloUpHydro              37.25      960       
BuffaloUpHydro              37.5       939       
BuffaloUpHydro              37.75      918       
BuffaloUpHydro              38         898       
BuffaloUpHydro              38.25      881       
BuffaloUpHydro              38.5       869       
BuffaloUpHydro              38.75      849       
BuffaloUpHydro              39         829       
BuffaloUpHydro              39.25      817       
BuffaloUpHydro              39.5       802       
BuffaloUpHydro              39.75      786       
BuffaloUpHydro              40         775       
BuffaloUpHydro              40.25      759       
BuffaloUpHydro              40.5       752       
BuffaloUpHydro              40.75      744       
BuffaloUpHydro              41         729       
BuffaloUpHydro              41.25      711       
BuffaloUpHydro              41.5       700       
BuffaloUpHydro              41.75      689       
BuffaloUpHydro              42         678       
BuffaloUpHydro              42.25      671       
BuffaloUpHydro              42.5       664       
BuffaloUpHydro              42.75      652       
BuffaloUpHydro              43         645       
BuffaloUpHydro              43.25      637       
BuffaloUpHydro              43.5       629       
BuffaloUpHydro              43.75      614       
BuffaloUpHydro              44         607       
BuffaloUpHydro              44.25      599       
BuffaloUpHydro              44.5       588       
BuffaloUpHydro              44.75      581       
BuffaloUpHydro              45         570       
BuffaloUpHydro              45.25      563       
BuffaloUpHydro              45.5       556       
BuffaloUpHydro              45.75      545       
BuffaloUpHydro              46         538       
BuffaloUpHydro              46.25      531       
BuffaloUpHydro              46.5       524       
BuffaloUpHydro              46.75      514       
BuffaloUpHydro              47         507       
BuffaloUpHydro              47.25      500       
BuffaloUpHydro              47.5       493       
BuffaloUpHydro              47.75      487       
BuffaloUpHydro              48         485       
BuffaloUpHydro              48.25      473       
BuffaloUpHydro              48.5       467       
BuffaloUpHydro              48.75      460       
BuffaloUpHydro              49         454       
BuffaloUpHydro              49.25      447       
BuffaloUpHydro              49.5       441       
BuffaloUpHydro              49.75      437       
BuffaloUpHydro              50         428       
BuffaloUpHydro              50.25      422       
BuffaloUpHydro              50.5       415       
BuffaloUpHydro              50.75      412       
BuffaloUpHydro              51         406       
BuffaloUpHydro              51.25      400       
BuffaloUpHydro              51.5       394       
BuffaloUpHydro              51.75      388       
BuffaloUpHydro              52         384       
BuffaloUpHydro              52.25      379       
BuffaloUpHydro              52.5       373       
BuffaloUpHydro              52.75      369       
BuffaloUpHydro              53         366       
BuffaloUpHydro              53.25      360       
BuffaloUpHydro              53.5       357       
BuffaloUpHydro              53.75      354       
BuffaloUpHydro              54         351       
BuffaloUpHydro              54.25      345       
BuffaloUpHydro              54.5       339       
BuffaloUpHydro              54.75      339       
BuffaloUpHydro              55         337       
BuffaloUpHydro              55.25      334       
BuffaloUpHydro              55.5       331       
BuffaloUpHydro              55.75      331       
BuffaloUpHydro              56         328       
BuffaloUpHydro              56.25      328       
BuffaloUpHydro              56.5       323       
BuffaloUpHydro              56.75      323       
BuffaloUpHydro              57         322       
BuffaloUpHydro              57.25      319       
BuffaloUpHydro              57.5       319       
BuffaloUpHydro              57.75      316       
BuffaloUpHydro              58         312       
BuffaloUpHydro              58.25      312       
BuffaloUpHydro              58.5       312       
BuffaloUpHydro              58.75      309       
BuffaloUpHydro              59         306       
BuffaloUpHydro              59.25      306       
BuffaloUpHydro              59.5       306       
BuffaloUpHydro              59.75      303       
BuffaloUpHydro              60         303       
BuffaloUpHydro              60.25      303       
BuffaloUpHydro              60.5       303       
BuffaloUpHydro              60.75      303       
BuffaloUpHydro              61         300       
BuffaloUpHydro              61.25      297       
BuffaloUpHydro              61.5       294       
BuffaloUpHydro              61.75      291       
BuffaloUpHydro              62         285       
BuffaloUpHydro              62.25      282       
BuffaloUpHydro              62.5       279       
BuffaloUpHydro              62.75      276       
BuffaloUpHydro              63         274       
BuffaloUpHydro              63.25      271       
BuffaloUpHydro              63.5       271       
BuffaloUpHydro              63.75      268       
BuffaloUpHydro              64         268       
BuffaloUpHydro              64.25      268       
BuffaloUpHydro              64.5       268       
BuffaloUpHydro              64.75      263       
BuffaloUpHydro              65         262       
BuffaloUpHydro              65.25      258       
BuffaloUpHydro              65.5       253       
BuffaloUpHydro              65.75      252       
BuffaloUpHydro              66         248       
BuffaloUpHydro              66.25      245       
BuffaloUpHydro              66.5       245       
BuffaloUpHydro              66.75      242       
BuffaloUpHydro              67         239       
BuffaloUpHydro              67.25      239       
BuffaloUpHydro              67.5       239       
BuffaloUpHydro              67.75      236       
BuffaloUpHydro              68         236       
BuffaloUpHydro              68.25      236       
BuffaloUpHydro              68.5       233       
BuffaloUpHydro              68.75      233       
BuffaloUpHydro              69         230       
BuffaloUpHydro              69.25      230       
BuffaloUpHydro              69.5       230       
BuffaloUpHydro              69.75      227       
BuffaloUpHydro              70         227       
BuffaloUpHydro              70.25      227       
BuffaloUpHydro              70.5       223       
BuffaloUpHydro              70.75      223       
BuffaloUpHydro              71         220       
BuffaloUpHydro              71.25      220       
BuffaloUpHydro              71.5       217       
BuffaloUpHydro              71.75      217       
BuffaloUpHydro              72         215       
BuffaloUpHydro              72.25      215       
BuffaloUpHydro              72.5       212       
BuffaloUpHydro              72.75      209       
BuffaloUpHydro              73         206       
BuffaloUpHydro              73.25      206       
BuffaloUpHydro              73.5       202       
BuffaloUpHydro              73.75      200       
BuffaloUpHydro              74         200       
BuffaloUpHydro              74.25      193       
BuffaloUpHydro              74.5       193       
BuffaloUpHydro              74.75      187       
BuffaloUpHydro              75         184       
BuffaloUpHydro              75.25      184       
BuffaloUpHydro              75.5       181       
BuffaloUpHydro              75.75      178       
BuffaloUpHydro              76         175       
BuffaloUpHydro              76.25      175       
BuffaloUpHydro              76.5       172       
BuffaloUpHydro              76.75      172       
BuffaloUpHydro              77         169       
BuffaloUpHydro              77.25      169       
BuffaloUpHydro              77.5       166       
BuffaloUpHydro              77.75      166       
BuffaloUpHydro              78         166       
BuffaloUpHydro              78.25      166       
BuffaloUpHydro              78.5       166       
BuffaloUpHydro              78.75      163       
BuffaloUpHydro              79         163       
BuffaloUpHydro              79.25      160       
BuffaloUpHydro              79.5       160       
BuffaloUpHydro              79.75      160       
BuffaloUpHydro              80         160       
BuffaloUpHydro              80.25      163       
BuffaloUpHydro              80.5       166       
BuffaloUpHydro              80.75      163       
BuffaloUpHydro              81         163       
BuffaloUpHydro              81.25      163       
BuffaloUpHydro              81.5       163       
BuffaloUpHydro              81.75      163       
BuffaloUpHydro              82         163       
BuffaloUpHydro              82.25      163       
BuffaloUpHydro              82.5       163       
BuffaloUpHydro              82.75      166       
BuffaloUpHydro              83         169       
BuffaloUpHydro              83.25      172       
BuffaloUpHydro              83.5       175       
BuffaloUpHydro              83.75      181       
BuffaloUpHydro              84         184       
BuffaloUpHydro              84.25      187       
BuffaloUpHydro              84.5       190       
BuffaloUpHydro              84.75      190       
BuffaloUpHydro              85         193       
BuffaloUpHydro              85.25      190       
BuffaloUpHydro              85.5       190       
BuffaloUpHydro              85.75      190       
BuffaloUpHydro              86         187       
BuffaloUpHydro              86.25      187       
BuffaloUpHydro              86.5       184       
BuffaloUpHydro              86.75      181       
BuffaloUpHydro              87         181       
BuffaloUpHydro              87.25      181       
BuffaloUpHydro              87.5       178       
BuffaloUpHydro              87.75      178       
BuffaloUpHydro              88         178       
BuffaloUpHydro              88.25      175       
BuffaloUpHydro              88.5       175       
BuffaloUpHydro              88.75      175       
BuffaloUpHydro              89         172       
BuffaloUpHydro              89.25      172       
BuffaloUpHydro              89.5       172       
BuffaloUpHydro              89.75      166       
BuffaloUpHydro              90         166       
BuffaloUpHydro              90.25      166       
BuffaloUpHydro              90.5       163       
BuffaloUpHydro              90.75      163       
BuffaloUpHydro              91         160       
BuffaloUpHydro              91.25      160       
BuffaloUpHydro              91.5       157       
BuffaloUpHydro              91.75      157       
BuffaloUpHydro              92         157       
BuffaloUpHydro              92.25      157       
BuffaloUpHydro              92.5       155       
BuffaloUpHydro              92.75      155       
BuffaloUpHydro              93         157       
BuffaloUpHydro              93.25      160       
BuffaloUpHydro              93.5       160       
BuffaloUpHydro              93.75      163       
BuffaloUpHydro              94         163       
BuffaloUpHydro              94.25      163       