[TITLE]
;;Project Title/Notes

[OPTIONS]
;;Option             Value
FLOW_UNITS           CFS
INFILTRATION         HORTON
FLOW_ROUTING         DYNWAVE
LINK_OFFSETS         DEPTH
MIN_SLOPE            0
ALLOW_PONDING        NO
SKIP_STEADY_STATE    NO

START_DATE           04/08/2021
START_TIME           00:00:00
REPORT_START_DATE    04/08/2021
REPORT_START_TIME    00:00:00
END_DATE             04/08/2021
END_TIME             22:00:00
SWEEP_START          01/01
SWEEP_END            12/31
DRY_DAYS             0
REPORT_STEP          00:05:00
WET_STEP             00:01:00
DRY_STEP             00:05:00
ROUTING_STEP         0:00:01 
RULE_STEP            00:00:00

INERTIAL_DAMPING     NONE
NORMAL_FLOW_LIMITED  BOTH
FORCE_MAIN_EQUATION  H-W
VARIABLE_STEP        0.75
LENGTHENING_STEP     0
MIN_SURFAREA         12.566
MAX_TRIALS           8
HEAD_TOLERANCE       0.005
SYS_FLOW_TOL         5
LAT_FLOW_TOL         5
MINIMUM_STEP         0.5
THREADS              1

[EVAPORATION]
;;Data Source    Parameters
;;-------------- ----------------
CONSTANT         0.0
DRY_ONLY         NO

[RAINGAGES]
;;Name           Format    Interval SCF      Source    
;;-------------- --------- ------ ------ ----------
1                INTENSITY 1:00     1.0      TIMESERIES 1in-hr-6-hrs    

[SUBCATCHMENTS]
;;Name           Rain Gage        Outlet           Area     %Imperv  Width    %Slope   CurbLen  SnowPack        
;;-------------- ---------------- ---------------- -------- -------- -------- -------- -------- ----------------
3                1                72               16       25       500      0.5      0                        
4                1                73               5        25       500      0.5      0                        
8                1                78               9        25       500      0.5      0                        
9                1                87               9        25       500      0.5      0                        
10               1                80               9        25       500      0.5      0                        
11               1                71               9        25       500      0.5      0                        
12               1                69               12       25       500      0.5      0                        
13               1                74               16       25       500      0.5      0                        
14               1                70               4        25       500      0.5      0                        
15               1                177              5        25       500      0.5      0                        
16               1                207              5        25       500      0.5      0                        
17               1                205              5        25       500      0.5      0                        
18               1                212              5        25       500      0.5      0                        
19               1                208              5        25       500      0.5      0                        
20               1                206              5        25       500      0.5      0                        
21               1                224              48       25       500      0.5      0                        
22               1                99               4        25       500      0.5      0                        
23               1                100              4        25       500      0.5      0                        
24               1                97               5        25       500      0.5      0                        
25               1                95               2        25       500      0.5      0                        
26               1                96               2        25       500      0.5      0                        
27               1                98               5        25       500      0.5      0                        
28               1                106              4        25       500      0.5      0                        
29               1                104              2        25       500      0.5      0                        
30               1                102              2        25       500      0.5      0                        
31               1                105              2        25       500      0.5      0                        
32               1                103              4        25       500      0.5      0                        
33               1                101              2        25       500      0.5      0                        
34               1                107              5        25       500      0.5      0                        
35               1                108              5        25       500      0.5      0                        
36               1                68               16       25       500      0.5      0                        
37               1                109              12       25       500      0.5      0                        
38               1                91               12       25       500      0.5      0                        
39               1                93               16       25       500      0.5      0                        
40               1                159              16       25       500      0.5      0                        
41               1                128              16       25       500      0.5      0                        
42               1                76               16       25       500      0.5      0                        
44               1                160              5        25       500      0.5      0                        
45               1                161              5        25       500      0.5      0                        
46               1                162              5        25       500      0.5      0                        
47               1                110              5        25       500      0.5      0                        
48               1                111              5        25       500      0.5      0                        
49               1                112              5        25       500      0.5      0                        
50               1                113              5        25       500      0.5      0                        
51               1                114              5        25       500      0.5      0                        
52               1                115              5        25       500      0.5      0                        
53               1                116              5        25       500      0.5      0                        
54               1                163              5        25       500      0.5      0                        
55               1                94               5        25       500      0.5      0                        
56               1                92               5        25       500      0.5      0                        
57               1                117              5        25       500      0.5      0                        
58               1                158              5        25       500      0.5      0                        
59               1                157              5        25       500      0.5      0                        
60               1                119              5        25       500      0.5      0                        
61               1                156              5        25       500      0.5      0                        
62               1                185              5        25       500      0.5      0                        
63               1                186              5        25       500      0.5      0                        
64               1                184              5        25       500      0.5      0                        
65               1                180              5        25       500      0.5      0                        
66               1                181              5        25       500      0.5      0                        
67               1                182              5        25       500      0.5      0                        
83               1                183              5        25       500      0.5      0                        
297              1                187              5        25       500      0.5      0                        
298              1                188              5        25       500      0.5      0                        
299              1                189              5        25       500      0.5      0                        
300              1                193              5        25       500      0.5      0                        
301              1                190              5        25       500      0.5      0                        
302              1                191              5        25       500      0.5      0                        
303              1                196              16       25       500      0.5      0                        
304              1                195              5        25       500      0.5      0                        
305              1                155              5        25       500      0.5      0                        
306              1                132              5        25       500      0.5      0                        
307              1                131              5        25       500      0.5      0                        
308              1                129              5        25       500      0.5      0                        
309              1                130              5        25       500      0.5      0                        
310              1                152              5        25       500      0.5      0                        
311              1                134              5        25       500      0.5      0                        
312              1                154              5        25       500      0.5      0                        
313              1                89               5        25       500      0.5      0                        
314              1                81               5        25       500      0.5      0                        
315              1                153              12       25       500      0.5      0                        
316              1                294              16       25       500      0.5      0                        
317              1                136              8        25       500      0.5      0                        
318              1                295              16       25       500      0.5      0                        
319              1                138              12       25       500      0.5      0                        
320              1                137              8        25       500      0.5      0                        
321              1                137              16       25       500      0.5      0                        
322              1                145              16       25       500      0.5      0                        
323              1                151              12       25       500      0.5      0                        
324              1                148              12       25       500      0.5      0                        
325              1                147              5        25       500      0.5      0                        
326              1                150              5        25       500      0.5      0                        
327              1                146              16       25       500      0.5      0                        
328              1                199              5        25       500      0.5      0                        
329              1                197              16       25       500      0.5      0                        
330              1                198              16       25       500      0.5      0                        
331              1                178              16       25       500      0.5      0                        
332              1                202              24       25       500      0.5      0                        
333              1                200              5        25       500      0.5      0                        
334              1                203              8        25       500      0.5      0                        
335              1                277              16       25       500      0.5      0                        
336              1                276              8        25       500      0.5      0                        
337              1                275              8        25       500      0.5      0                        
338              1                274              12       25       500      0.5      0                        
339              1                292              16       25       500      0.5      0                        
340              1                279              8        25       500      0.5      0                        
341              1                278              8        25       500      0.5      0                        
342              1                140              5        25       500      0.5      0                        
343              1                139              5        25       500      0.5      0                        
344              1                144              5        25       500      0.5      0                        
345              1                273              5        25       500      0.5      0                        
346              1                280              5        25       500      0.5      0                        
347              1                284              5        25       500      0.5      0                        
348              1                288              12       25       500      0.5      0                        
349              1                288              12       25       500      0.5      0                        
350              1                289              12       25       500      0.5      0                        
351              1                290              12       25       500      0.5      0                        
352              1                287              42       25       500      0.5      0                        
353              1                285              18       25       500      0.5      0                        
354              1                286              24       25       500      0.5      0                        
355              1                293              24       25       500      0.5      0                        
356              1                283              5        25       500      0.5      0                        
357              1                282              5        25       500      0.5      0                        
358              1                281              5        25       500      0.5      0                        
359              1                267              24       25       500      0.5      0                        
360              1                268              12       25       500      0.5      0                        
361              1                269              18       25       500      0.5      0                        
362              1                272              12       25       500      0.5      0                        
363              1                236              16       25       500      0.5      0                        
364              1                234              16       25       500      0.5      0                        
365              1                239              24       25       500      0.5      0                        
366              1                228              24       25       500      0.5      0                        
367              1                233              16       25       500      0.5      0                        
368              1                231              12       25       500      0.5      0                        
369              1                230              8        25       500      0.5      0                        
370              1                227              12       25       500      0.5      0                        
371              1                238              5        25       500      0.5      0                        
372              1                225              8        25       500      0.5      0                        
373              1                241              8        25       500      0.5      0                        
374              1                255              5        25       500      0.5      0                        
375              1                259              5        25       500      0.5      0                        
376              1                248              12       25       500      0.5      0                        
377              1                249              16       25       500      0.5      0                        
378              1                253              16       25       500      0.5      0                        
379              1                252              5        25       500      0.5      0                        
380              1                220              8        25       500      0.5      0                        
381              1                219              12       25       500      0.5      0                        
382              1                221              8        25       500      0.5      0                        
383              1                222              8        25       500      0.5      0                        
384              1                223              6        25       500      0.5      0                        
385              1                211              5        25       500      0.5      0                        
386              1                260              16       25       500      0.5      0                        
387              1                270              8        25       500      0.5      0                        
388              1                264              16       25       500      0.5      0                        
389              1                291              71       25       500      0.5      0                        
390              1                5                168      25       500      0.5      0                        
391              1                296              240      25       500      0.5      0                        
392              1                hughes_street_outfall 112      25       500      0.5      0                        
393              1                164              72       25       500      0.5      0                        

[SUBAREAS]
;;Subcatchment   N-Imperv   N-Perv     S-Imperv   S-Perv     PctZero    RouteTo    PctRouted 
;;-------------- ---------- ---------- ---------- ---------- ---------- ---------- ----------
3                0.01       0.1        0.05       0.05       25         OUTLET    
4                0.01       0.1        0.05       0.05       25         OUTLET    
8                0.01       0.1        0.05       0.05       25         OUTLET    
9                0.01       0.1        0.05       0.05       25         OUTLET    
10               0.01       0.1        0.05       0.05       25         OUTLET    
11               0.01       0.1        0.05       0.05       25         OUTLET    
12               0.01       0.1        0.05       0.05       25         OUTLET    
13               0.01       0.1        0.05       0.05       25         OUTLET    
14               0.01       0.1        0.05       0.05       25         OUTLET    
15               0.01       0.1        0.05       0.05       25         OUTLET    
16               0.01       0.1        0.05       0.05       25         OUTLET    
17               0.01       0.1        0.05       0.05       25         OUTLET    
18               0.01       0.1        0.05       0.05       25         OUTLET    
19               0.01       0.1        0.05       0.05       25         OUTLET    
20               0.01       0.1        0.05       0.05       25         OUTLET    
21               0.01       0.1        0.05       0.05       25         OUTLET    
22               0.01       0.1        0.05       0.05       25         OUTLET    
23               0.01       0.1        0.05       0.05       25         OUTLET    
24               0.01       0.1        0.05       0.05       25         OUTLET    
25               0.01       0.1        0.05       0.05       25         OUTLET    
26               0.01       0.1        0.05       0.05       25         OUTLET    
27               0.01       0.1        0.05       0.05       25         OUTLET    
28               0.01       0.1        0.05       0.05       25         OUTLET    
29               0.01       0.1        0.05       0.05       25         OUTLET    
30               0.01       0.1        0.05       0.05       25         OUTLET    
31               0.01       0.1        0.05       0.05       25         OUTLET    
32               0.01       0.1        0.05       0.05       25         OUTLET    
33               0.01       0.1        0.05       0.05       25         OUTLET    
34               0.01       0.1        0.05       0.05       25         OUTLET    
35               0.01       0.1        0.05       0.05       25         OUTLET    
36               0.01       0.1        0.05       0.05       25         OUTLET    
37               0.01       0.1        0.05       0.05       25         OUTLET    
38               0.01       0.1        0.05       0.05       25         OUTLET    
39               0.01       0.1        0.05       0.05       25         OUTLET    
40               0.01       0.1        0.05       0.05       25         OUTLET    
41               0.01       0.1        0.05       0.05       25         OUTLET    
42               0.01       0.1        0.05       0.05       25         OUTLET    
44               0.01       0.1        0.05       0.05       25         OUTLET    
45               0.01       0.1        0.05       0.05       25         OUTLET    
46               0.01       0.1        0.05       0.05       25         OUTLET    
47               0.01       0.1        0.05       0.05       25         OUTLET    
48               0.01       0.1        0.05       0.05       25         OUTLET    
49               0.01       0.1        0.05       0.05       25         OUTLET    
50               0.01       0.1        0.05       0.05       25         OUTLET    
51               0.01       0.1        0.05       0.05       25         OUTLET    
52               0.01       0.1        0.05       0.05       25         OUTLET    
53               0.01       0.1        0.05       0.05       25         OUTLET    
54               0.01       0.1        0.05       0.05       25         OUTLET    
55               0.01       0.1        0.05       0.05       25         OUTLET    
56               0.01       0.1        0.05       0.05       25         OUTLET    
57               0.01       0.1        0.05       0.05       25         OUTLET    
58               0.01       0.1        0.05       0.05       25         OUTLET    
59               0.01       0.1        0.05       0.05       25         OUTLET    
60               0.01       0.1        0.05       0.05       25         OUTLET    
61               0.01       0.1        0.05       0.05       25         OUTLET    
62               0.01       0.1        0.05       0.05       25         OUTLET    
63               0.01       0.1        0.05       0.05       25         OUTLET    
64               0.01       0.1        0.05       0.05       25         OUTLET    
65               0.01       0.1        0.05       0.05       25         OUTLET    
66               0.01       0.1        0.05       0.05       25         OUTLET    
67               0.01       0.1        0.05       0.05       25         OUTLET    
83               0.01       0.1        0.05       0.05       25         OUTLET    
297              0.01       0.1        0.05       0.05       25         OUTLET    
298              0.01       0.1        0.05       0.05       25         OUTLET    
299              0.01       0.1        0.05       0.05       25         OUTLET    
300              0.01       0.1        0.05       0.05       25         OUTLET    
301              0.01       0.1        0.05       0.05       25         OUTLET    
302              0.01       0.1        0.05       0.05       25         OUTLET    
303              0.01       0.1        0.05       0.05       25         OUTLET    
304              0.01       0.1        0.05       0.05       25         OUTLET    
305              0.01       0.1        0.05       0.05       25         OUTLET    
306              0.01       0.1        0.05       0.05       25         OUTLET    
307              0.01       0.1        0.05       0.05       25         OUTLET    
308              0.01       0.1        0.05       0.05       25         OUTLET    
309              0.01       0.1        0.05       0.05       25         OUTLET    
310              0.01       0.1        0.05       0.05       25         OUTLET    
311              0.01       0.1        0.05       0.05       25         OUTLET    
312              0.01       0.1        0.05       0.05       25         OUTLET    
313              0.01       0.1        0.05       0.05       25         OUTLET    
314              0.01       0.1        0.05       0.05       25         OUTLET    
315              0.01       0.1        0.05       0.05       25         OUTLET    
316              0.01       0.1        0.05       0.05       25         OUTLET    
317              0.01       0.1        0.05       0.05       25         OUTLET    
318              0.01       0.1        0.05       0.05       25         OUTLET    
319              0.01       0.1        0.05       0.05       25         OUTLET    
320              0.01       0.1        0.05       0.05       25         OUTLET    
321              0.01       0.1        0.05       0.05       25         OUTLET    
322              0.01       0.1        0.05       0.05       25         OUTLET    
323              0.01       0.1        0.05       0.05       25         OUTLET    
324              0.01       0.1        0.05       0.05       25         OUTLET    
325              0.01       0.1        0.05       0.05       25         OUTLET    
326              0.01       0.1        0.05       0.05       25         OUTLET    
327              0.01       0.1        0.05       0.05       25         OUTLET    
328              0.01       0.1        0.05       0.05       25         OUTLET    
329              0.01       0.1        0.05       0.05       25         OUTLET    
330              0.01       0.1        0.05       0.05       25         OUTLET    
331              0.01       0.1        0.05       0.05       25         OUTLET    
332              0.01       0.1        0.05       0.05       25         OUTLET    
333              0.01       0.1        0.05       0.05       25         OUTLET    
334              0.01       0.1        0.05       0.05       25         OUTLET    
335              0.01       0.1        0.05       0.05       25         OUTLET    
336              0.01       0.1        0.05       0.05       25         OUTLET    
337              0.01       0.1        0.05       0.05       25         OUTLET    
338              0.01       0.1        0.05       0.05       25         OUTLET    
339              0.01       0.1        0.05       0.05       25         OUTLET    
340              0.01       0.1        0.05       0.05       25         OUTLET    
341              0.01       0.1        0.05       0.05       25         OUTLET    
342              0.01       0.1        0.05       0.05       25         OUTLET    
343              0.01       0.1        0.05       0.05       25         OUTLET    
344              0.01       0.1        0.05       0.05       25         OUTLET    
345              0.01       0.1        0.05       0.05       25         OUTLET    
346              0.01       0.1        0.05       0.05       25         OUTLET    
347              0.01       0.1        0.05       0.05       25         OUTLET    
348              0.01       0.1        0.05       0.05       25         OUTLET    
349              0.01       0.1        0.05       0.05       25         OUTLET    
350              0.01       0.1        0.05       0.05       25         OUTLET    
351              0.01       0.1        0.05       0.05       25         OUTLET    
352              0.01       0.1        0.05       0.05       25         OUTLET    
353              0.01       0.1        0.05       0.05       25         OUTLET    
354              0.01       0.1        0.05       0.05       25         OUTLET    