[TITLE]
;;Project Title/Notes

[OPTIONS]
;;Option             Value
FLOW_UNITS           CFS
INFILTRATION         HORTON
FLOW_ROUTING         KINWAVE
LINK_OFFSETS         DEPTH
MIN_SLOPE            0
ALLOW_PONDING        NO
SKIP_STEADY_STATE    NO

START_DATE           11/23/2007
START_TIME           00:00:00
REPORT_START_DATE    11/23/2007
REPORT_START_TIME    00:00:00
END_DATE             11/28/2007
END_TIME             00:00:00
SWEEP_START          01/01
SWEEP_END            12/31
DRY_DAYS             0
REPORT_STEP          00:15:00
WET_STEP             00:15:00
DRY_STEP             01:00:00
ROUTING_STEP         0:00:30 
RULE_STEP            00:00:00

INERTIAL_DAMPING     PARTIAL
NORMAL_FLOW_LIMITED  SLOPE
FORCE_MAIN_EQUATION  H-W
VARIABLE_STEP        0.75
LENGTHENING_STEP     0
MIN_SURFAREA         0
MAX_TRIALS           0
HEAD_TOLERANCE       0
SYS_FLOW_TOL         5
LAT_FLOW_TOL         5
MINIMUM_STEP         0.5
THREADS              1

[EVAPORATION]
;;Data Source    Parameters
;;-------------- ----------------
CONSTANT         0.0
DRY_ONLY         NO

[RAINGAGES]
;;Name           Format    Interval SCF      Source    
;;-------------- --------- ------ ------ ----------
Gage1            INTENSITY 1:00     1.0      TIMESERIES TimeSeries1     
Gage2            INTENSITY 1:00     1.0      TIMESERIES TimeSeries1     
Gage3            INTENSITY 1:00     1.0      TIMESERIES TimeSeries1     
Gage4            INTENSITY 1:00     1.0      TIMESERIES TimeSeries1     
Gage5            INTENSITY 1:00     1.0      TIMESERIES TimeSeries1     
Gage6            INTENSITY 1:00     1.0      TIMESERIES TimeSeries1     
Gage7            INTENSITY 1:00     1.0      TIMESERIES TimeSeries1     
Gage8            INTENSITY 1:00     1.0      TIMESERIES TimeSeries1     

[SUBCATCHMENTS]
;;Name           Rain Gage        Outlet           Area     %Imperv  Width    %Slope   CurbLen  SnowPack        
;;-------------- ---------------- ---------------- -------- -------- -------- -------- -------- ----------------
1093s            Gage1            1093             3600     25       12522.6  0.5      0                        
1069s            Gage2            1069             3600     25       12522.6  0.5      0                        
1063s            Gage2            1063             3600     25       12522.6  0.5      0                        
1049s            Gage3            1049             3600     25       12522.6  0.5      0                        
1319s            Gage2            1319             3600     25       12522.6  0.5      0                        
1339s            Gage2            1339             3600     25       12522.6  0.5      0                        
1219s            Gage2            1219             3600     25       12522.6  0.5      0                        
1189s            Gage1            1189             3600     25       12522.6  0.5      0                        
1179s            Gage1            1179             3600     25       12522.6  0.5      0                        
1178s            Gage2            1178             3600     25       12522.6  0.5      0                        
1209s            Gage2            1209             3600     25       12522.6  0.5      0                        
1173s            Gage2            1173             3600     25       12522.6  0.5      0                        
1163s            Gage2            1163             3600     25       12522.6  0.5      0                        
1153s            Gage2            1153             3600     25       12522.6  0.5      0                        
1129s            Gage3            1129             3600     25       12522.6  0.5      0                        
1119s            Gage3            1119             3600     25       12522.6  0.5      0                        
1118s            Gage3            1118             3600     25       12522.6  0.5      0                        
1109s            Gage3            1109             3600     25       12522.6  0.5      0                        
763s             Gage3            763              3600     25       12522.6  0.5      0                        
758s             Gage4            758              3600     25       12522.6  0.5      0                        
789s             Gage4            789              3600     25       12522.6  0.5      0                        
739s             Gage4            739              3600     25       12522.6  0.5      0                        
1629s            Gage4            1629             3600     25       12522.6  0.5      0                        
1639s            Gage3            1639             3600     25       12522.6  0.5      0                        
1644s            Gage3            1644             3600     25       12522.6  0.5      0                        
1659s            Gage3            1659             3600     25       12522.6  0.5      0                        
1664s            Gage3            1664             3600     25       12522.6  0.5      0                        
1669s            Gage2            1669             3600     25       12522.6  0.5      0                        
554s             Gage2            554              3600     25       12522.6  0.5      0                        
549s             Gage2            549              3600     25       12522.6  0.5      0                        
544s             Gage2            544              3600     25       12522.6  0.5      0                        
594s             Gage3            594              3600     25       12522.6  0.5      0                        
584s             Gage6            584              3600     25       12522.6  0.5      0                        
539s             Gage3            539              3600     25       12522.6  0.5      0                        
589s             Gage6            589              3600     25       12522.6  0.5      0                        
578s             Gage6            578              3600     25       12522.6  0.5      0                        
534s             Gage6            534              3600     25       12522.6  0.5      0                        
579s             Gage6            579              3600     25       12522.6  0.5      0                        
573s             Gage6            573              3600     25       12522.6  0.5      0                        
1689s            Gage3            1689             3600     25       12522.6  0.5      0                        
1679s            Gage7            1679             3600     25       12522.6  0.5      0                        
1678s            Gage7            1678             3600     25       12522.6  0.5      0                        
1619s            Gage7            1619             3600     25       12522.6  0.5      0                        
1688s            Gage7            1688             3600     25       12522.6  0.5      0                        
1459s            Gage7            1459             3600     25       12522.6  0.5      0                        
1439s            Gage7            1439             3600     25       12522.6  0.5      0                        
1419s            Gage7            1419             3600     25       12522.6  0.5      0                        
713s             Gage8            713              3600     25       12522.6  0.5      0                        
719s             Gage4            719              3600     25       12522.6  0.5      0                        
3903s            Gage8            3903             3600     25       12522.6  0.5      0                        
1539s            Gage8            1539             3600     25       12522.6  0.5      0                        
1519s            Gage8            1519             3600     25       12522.6  0.5      0                        
1723s            Gage8            1723             3600     25       12522.6  0.5      0                        
1739s            Gage4            1739             3600     25       12522.6  0.5      0                        
943s             Gage7            943              3600     25       12522.6  0.5      0                        
919s             Gage7            919              3600     25       12522.6  0.5      0                        
313s             Gage7            313              3600     25       12522.6  0.5      0                        
1649s            Gage7            1649             3600     25       12522.6  0.5      0                        
339s             Gage7            339              3600     25       12522.6  0.5      0                        
359s             Gage7            359              3600     25       12522.6  0.5      0                        
369s             Gage6            369              3600     25       12522.6  0.5      0                        
379s             Gage6            379              3600     25       12522.6  0.5      0                        
839s             Gage7            839              3600     25       12522.6  0.5      0                        
829s             Gage7            829              3600     25       12522.6  0.5      0                        
819s             Gage7            819              3600     25       12522.6  0.5      0                        
1613s            Gage7            1613             3600     25       12522.6  0.5      0                        
2209s            Gage7            2209             3600     25       12522.6  0.5      0                        
2220s            Gage7            2220             3600     25       12522.6  0.5      0                        
559s             Gage7            559              3600     25       12522.6  0.5      0                        
519s             Gage6            519              3600     25       12522.6  0.5      0                        
2239s            Gage6            2239             3600     25       12522.6  0.5      0                        
2249s            Gage6            2249             3600     25       12522.6  0.5      0                        
2263s            Gage6            2263             3600     25       12522.6  0.5      0                        
2269s            Gage6            2269             3600     25       12522.6  0.5      0                        
2289s            Gage6            2289             3600     25       12522.6  0.5      0                        
2109s            Gage5            2109             3600     25       12522.6  0.5      0                        
2119s            Gage5            2119             3600     25       12522.6  0.5      0                        
2159s            Gage5            2159             3600     25       12522.6  0.5      0                        
2149s            Gage5            2149             3600     25       12522.6  0.5      0                        
2179s            Gage5            2179             3600     25       12522.6  0.5      0                        
484s             Gage5            484              3600     25       12522.6  0.5      0                        
469s             Gage6            469              3600     25       12522.6  0.5      0                        
474s             Gage6            474              3600     25       12522.6  0.5      0                        
468s             Gage6            468              3600     25       12522.6  0.5      0                        
489s             Gage6            489              3600     25       12522.6  0.5      0                        
479s             Gage6            479              3600     25       12522.6  0.5      0                        
459s             Gage6            459              3600     25       12522.6  0.5      0                        
443s             Gage6            443              3600     25       12522.6  0.5      0                        
438s             Gage6            438              3600     25       12522.6  0.5      0                        
429s             Gage6            429              3600     25       12522.6  0.5      0                        
419s             Gage6            419              3600     25       12522.6  0.5      0                        
399s             Gage6            399              3600     25       12522.6  0.5      0                        
403s             Gage6            403              3600     25       12522.6  0.5      0                        
189s             Gage6            189              3600     25       12522.6  0.5      0                        
179s             Gage7            179              3600     25       12522.6  0.5      0                        
149s             Gage7            149              3600     25       12522.6  0.5      0                        
159s             Gage7            159              3600     25       12522.6  0.5      0                        
139s             Gage7            139              3600     25       12522.6  0.5      0                        
273s             Gage8            273              3600     25       12522.6  0.5      0                        
219s             Gage8            219              3600     25       12522.6  0.5      0                        
233s             Gage8            233              3600     25       12522.6  0.5      0                        
623s             Gage8            623              3600     25       12522.6  0.5      0                        
249s             Gage8            249              3600     25       12522.6  0.5      0                        
209s             Gage8            209              3600     25       12522.6  0.5      0                        
203s             Gage8            203              3600     25       12522.6  0.5      0                        
104s             Gage8            104              3600     25       12522.6  0.5      0                        
108s             Gage7            108              3600     25       12522.6  0.5      0                        
138s             Gage7            138              3600     25       12522.6  0.5      0                        
118s             Gage7            118              3600     25       12522.6  0.5      0                        
123s             Gage7            123              3600     25       12522.6  0.5      0                        
128s             Gage7            128              3600     25       12522.6  0.5      0                        
133s             Gage7            133              3600     25       12522.6  0.5      0                        
109s             Gage8            109              3600     25       12522.6  0.5      0                        
173s             Gage8            173              3600     25       12522.6  0.5      0                        
1693s            Gage4            1693             3600     25       12522.6  0.5      0                        
1939s            Gage4            1939             3600     25       12522.6  0.5      0                        
413s             Gage7            413              3600     25       12522.6  0.5      0                        
319s             Gage7            319              3600     25       12522.6  0.5      0                        
142              Gage7            TempJ5           5        25       500      0.5      0                        
143              Gage7            TempJ4           5        25       500      0.5      0                        
144              Gage7            TempJ2           5        25       500      0.5      0                        
145              Gage7            TempJ3           5        25       500      0.5      0                        
146              Gage7            TempJ6           5        25       500      0.5      0                        
147              Gage7            TempJ8           5        25       500      0.5      0                        
148              Gage7            TempJ7           5        25       500      0.5      0                        
150              Gage7            TempJ10          5        25       500      0.5      0                        
151              Gage8            TempJ11          5        25       500      0.5      0                        
152              Gage8            TempJ12          5        25       500      0.5      0                        
155              Gage7            TempJ9           5        25       500      0.5      0                        
156              Gage5            TempJ15          5        25       500      0.5      0                        
157              Gage5            2039             5        25       500      0.5      0                        
158              Gage5            TempJ16          5        25       500      0.5      0                        
160              Gage5            TempJ17          5        25       500      0.5      0                        
161              Gage4            1139             5        25       500      0.5      0                        
162              Gage7            TempJ1           5        25       500      0.5      0                        

[SUBAREAS]
;;Subcatchment   N-Imperv   N-Perv     S-Imperv   S-Perv     PctZero    RouteTo    PctRouted 
;;-------------- ---------- ---------- ---------- ---------- ---------- ---------- ----------
1093s            0.01       0.1        0.05       0.05       25         OUTLET    
1069s            0.01       0.1        0.05       0.05       25         OUTLET    
1063s            0.01       0.1        0.05       0.05       25         OUTLET    
1049s            0.01       0.1        0.05       0.05       25         OUTLET    
1319s            0.01       0.1        0.05       0.05       25         OUTLET    
1339s            0.01       0.1        0.05       0.05       25         OUTLET    
1219s            0.01       0.1        0.05       0.05       25         OUTLET    
1189s            0.01       0.1        0.05       0.05       25         OUTLET    
1179s            0.01       0.1        0.05       0.05       25         OUTLET    
1178s            0.01       0.1        0.05       0.05       25         OUTLET    
1209s            0.01       0.1        0.05       0.05       25         OUTLET    
1173s            0.01       0.1        0.05       0.05       25         OUTLET    
1163s            0.01       0.1        0.05       0.05       25         OUTLET    
1153s            0.01       0.1        0.05       0.05       25         OUTLET    
1129s            0.01       0.1        0.05       0.05       25         OUTLET    
1119s            0.01       0.1        0.05       0.05       25         OUTLET    
1118s            0.01       0.1        0.05       0.05       25         OUTLET    
1109s            0.01       0.1        0.05       0.05       25         OUTLET    
763s             0.01       0.1        0.05       0.05       25         OUTLET    
758s             0.01       0.1        0.05       0.05       25         OUTLET    
789s             0.01       0.1        0.05       0.05       25         OUTLET    
739s             0.01       0.1        0.05       0.05       25         OUTLET    
1629s            0.01       0.1        0.05       0.05       25         OUTLET    
1639s            0.01       0.1        0.05       0.05       25         OUTLET    
1644s            0.01       0.1        0.05       0.05       25         OUTLET    
1659s            0.01       0.1        0.05       0.05       25         OUTLET    
1664s            0.01       0.1        0.05       0.05       25         OUTLET    
1669s            0.01       0.1        0.05       0.05       25         OUTLET    
554s             0.01       0.1        0.05       0.05       25         OUTLET    
549s             0.01       0.1        0.05       0.05       25         OUTLET    
544s             0.01       0.1        0.05       0.05       25         OUTLET    
594s             0.01       0.1        0.05       0.05       25         OUTLET    
584s             0.01       0.1        0.05       0.05       25         OUTLET    
539s             0.01       0.1        0.05       0.05       25         OUTLET    
589s             0.01       0.1        0.05       0.05       25         OUTLET    
578s             0.01       0.1        0.05       0.05       25         OUTLET    
534s             0.01       0.1        0.05       0.05       25         OUTLET    
579s             0.01       0.1        0.05       0.05       25         OUTLET    
573s             0.01       0.1        0.05       0.05       25         OUTLET    
1689s            0.01       0.1        0.05       0.05       25         OUTLET    
1679s            0.01       0.1        0.05       0.05       25         OUTLET    
1678s            0.01       0.1        0.05       0.05       25         OUTLET    
1619s            0.01       0.1        0.05       0.05       25         OUTLET    
1688s            0.01       0.1        0.05       0.05       25         OUTLET    
1459s            0.01       0.1        0.05       0.05       25         OUTLET    
1439s            0.01       0.1        0.05       0.05       25         OUTLET    
1419s            0.01       0.1        0.05       0.05       25         OUTLET    
713s             0.01       0.1        0.05       0.05       25         OUTLET    
719s             0.01       0.1        0.05       0.05       25         OUTLET    
3903s            0.01       0.1        0.05       0.05       25         OUTLET    
1539s            0.01       0.1        0.05       0.05       25         OUTLET    
1519s            0.01       0.1        0.05       0.05       25         OUTLET    
1723s            0.01       0.1        0.05       0.05       25         OUTLET    
1739s            0.01       0.1        0.05       0.05       25         OUTLET    
943s             0.01       0.1        0.05       0.05       25         OUTLET    
919s             0.01       0.1        0.05       0.05       25         OUTLET    
313s             0.01       0.1        0.05       0.05       25         OUTLET    
1649s            0.01       0.1        0.05       0.05       25         OUTLET    
339s             0.01       0.1        0.05       0.05       25         OUTLET    
359s             0.01       0.1        0.05       0.05       25         OUTLET    
369s             0.01       0.1        0.05       0.05       25         OUTLET    
379s             0.01       0.1        0.05       0.05       25         OUTLET    
839s             0.01       0.1        0.05       0.05       25         OUTLET    
829s             0.01       0.1        0.05       0.05       25         OUTLET    
819s             0.01       0.1        0.05       0.05       25         OUTLET    
1613s            0.01       0.1        0.05       0.05       25         OUTLET    
2209s            0.01       0.1        0.05       0.05       25         OUTLET    
2220s            0.01       0.1        0.05       0.05       25         OUTLET    
559s             0.01       0.1        0.05       0.05       25         OUTLET    
519s             0.01       0.1        0.05       0.05       25         OUTLET    
2239s            0.01       0.1        0.05       0.05       25         OUTLET    
2249s            0.01       0.1        0.05       0.05       25         OUTLET    
2263s            0.01       0.1        0.05       0.05       25         OUTLET    
2269s            0.01       0.1        0.05       0.05       25         OUTLET    
2289s            0.01       0.1        0.05       0.05       25         OUTLET    
2109s            0.01       0.1        0.05       0.05       25         OUTLET    
2119s            0.01       0.1        0.05       0.05       25         OUTLET    
2159s            0.01       0.1        0.05       0.05       25         OUTLET    
2149s            0.01       0.1        0.05       0.05       25         OUTLET    
2179s            0.01       0.1        0.05       0.05       25         OUTLET    
484s             0.01       0.1        0.05       0.05       25         OUTLET    
469s             0.01       0.1        0.05       0.05       25         OUTLET    
474s             0.01       0.1        0.05       0.05       25         OUTLET    
468s             0.01       0.1        0.05       0.05       25         OUTLET    
489s             0.01       0.1        0.05       0.05       25         OUTLET    
479s             0.01       0.1        0.05       0.05       25         OUTLET    
459s             0.01       0.1        0.05       0.05       25         OUTLET    
443s             0.01       0.1        0.05       0.05       25         OUTLET    
438s             0.01       0.1        0.05       0.05       25         OUTLET    
429s             0.01       0.1        0.05       0.05       25         OUTLET    
419s             0.01       0.1        0.05       0.05       25         OUTLET    
399s             0.01       0.1        0.05       0.05       25         OUTLET    
403s             0.01       0.1        0.05       0.05       25         OUTLET    
189s             0.01       0.1        0.05       0.05       25         OUTLET    
179s             0.01       0.1        0.05       0.05       25         OUTLET    
149s             0.01       0.1        0.05       0.05       25         OUTLET    
159s             0.01       0.1        0.05       0.05       25         OUTLET    
139s             0.01       0.1        0.05       0.05       25         OUTLET    
273s             0.01       0.1        0.05       0.05       25         OUTLET    
219s             0.01       0.1        0.05       0.05       25         OUTLET    
233s             0.01       0.1        0.05       0.05       25         OUTLET    
623s             0.01       0.1        0.05       0.05       25         OUTLET    
249s             0.01       0.1        0.05       0.05       25         OUTLET    
209s             0.01       0.1        0.05       0.05       25         OUTLET    
203s             0.01       0.1        0.05       0.05       25         OUTLET    
104s             0.01       0.1        0.05       0.05       25         OUTLET    
108s             0.01       0.1        0.05       0.05       25         OUTLET    
138s             0.01       0.1        0.05       0.05       25         OUTLET    
118s             0.01       0.1        0.05       0.05       25         OUTLET    
123s             0.01       0.1        0.05       0.05       25         OUTLET    
128s             0.01       0.1        0.05       0.05       25         OUTLET    
133s             0.01       0.1        0.05       0.05       25         OUTLET    
109s             0.01       0.1        0.05       0.05       25         OUTLET    
173s             0.01       0.1        0.05       0.05       25         OUTLET    
1693s            0.01       0.1        0.05       0.05       25         OUTLET    
1939s            0.01       0.1        0.05       0.05       25         OUTLET    
413s             0.01       0.1        0.05       0.05       25         OUTLET    
319s             0.01       0.1        0.05       0.05       25         OUTLET    
142              0.01       0.1        0.05       0.05       25         OUTLET    
143              0.01       0.1        0.05       0.05       25         OUTLET    
144              0.01       0.1        0.05       0.05       25         OUTLET    
145              0.01       0.1        0.05       0.05       25         OUTLET    
146              0.01       0.1        0.05       0.05       25         OUTLET    
147              0.01       0.1        0.05       0.05       25         OUTLET    
148              0.01       0.1        0.05       0.05       25         OUTLET    
150              0.01       0.1        0.05       0.05       25         OUTLET    
151              0.01       0.1        0.05       0.05       25         OUTLET    
152              0.01       0.1        0.05       0.05       25         OUTLET    
155              0.01       0.1        0.05       0.05       25         OUTLET    
156              0.01       0.1        0.05       0.05       25         OUTLET    
157              0.01       0.1        0.05       0.05       25         OUTLET    
158              0.01       0.1        0.05       0.05       25         OUTLET    
160              0.01       0.1        0.05       0.05       25         OUTLET    
161              0.01       0.1        0.05       0.05       25         OUTLET    
162              0.01       0.1        0.05       0.05       25         OUTLET    

[INFILTRATION]
;;Subcatchment   Param1     Param2     Param3     Param4     Param5    
;;-------------- ---------- ---------- ---------- ---------- ----------
1093s            3.0        0.5        4          7          0         
1069s            3.0        0.5        4          7          0         
1063s            3.0        0.5        4          7          0         
1049s            3.0        0.5        4          7          0         
1319s            3.0        0.5        4          7          0         
1339s            3.0        0.5        4          7          0         
1219s            3.0        0.5        4          7          0         
1189s            3.0        0.5        4          7          0         
1179s            3.0        0.5        4          7          0         
1178s            3.0        0.5        4          7          0         
1209s            3.0        0.5        4          7          0         