[TITLE]


[JUNCTIONS]
;ID              	Elev        	Demand      	Pattern         
 J8              	2793.06     	0           	                	;
 J9              	2790        	0           	                	;
 J7              	0           	0           	                	;
 TERMINAL        	2791.25     	0           	                	;
 J4              	0           	0           	                	;
 J3              	0           	0           	                	;
 J2              	0           	0           	                	;
 J1              	0           	0           	                	;
 25W3            	0           	0           	                	;
 25W4            	0           	0           	                	;
 25W5            	0           	0           	                	;
 25W1            	0           	0           	                	;
 25W2            	0           	0           	                	;
 30W1            	0           	0           	                	;
 30W3            	0           	0           	                	;
 30W5            	2813.46     	0           	                	;
 30W4            	2802.59     	0           	                	;
 30W6            	2820.27     	0           	                	;
 J6              	0           	0           	                	;
 J5              	0           	0           	                	;
 24W2            	2781.53     	0           	                	;
 24W3            	2792.37     	0           	                	;
 30W2            	0           	0           	                	;
 24W1            	0           	0           	                	;
 2               	2599        	0           	                	;
 3               	2590        	0           	                	;
 4               	2590        	0           	                	;
 5               	2572        	0           	                	;
 6               	2567        	0           	                	;
 7               	2572        	0           	                	;
 8               	2628        	0           	                	;
 10              	2634        	0           	                	;
 11              	2658        	0           	                	;
 12              	2770        	0           	                	;
 13              	2770        	0           	                	;
 14              	0           	0           	                	;
 16              	2780        	0           	                	;
 17              	0           	0           	                	;
 18              	2793        	0           	                	;
 19              	2794        	0           	                	;
 20              	2771        	0           	                	;
 21              	2565        	0           	                	;
 22              	2571        	0           	                	;
 23              	2581        	0           	                	;

[RESERVOIRS]
;ID              	Head        	Pattern         
 9               	0           	                	;
 15              	0           	                	;
 27              	0           	                	;
 28              	0           	                	;
 29              	0           	                	;
 30              	0           	                	;
 31              	0           	                	;
 32              	0           	                	;
 33              	0           	                	;
 34              	0           	                	;
 35              	0           	                	;
 36              	0           	                	;
 37              	0           	                	;
 38              	0           	                	;
 24              	2597        	                	;

[TANKS]
;ID              	Elevation   	InitLevel   	MinLevel    	MaxLevel    	Diameter    	MinVol      	VolCurve        	Overflow
 1               	0           	10          	0           	20          	50          	0           	                	;

[PIPES]
;ID              	Node1           	Node2           	Length      	Diameter    	Roughness   	MinorLoss   	Status
 1               	25W3            	J1              	1916        	6           	100         	0           	Open  	;
 2               	25W5            	J1              	1290        	6           	100         	0           	Open  	;
 3               	25W4            	J2              	1101        	6           	100         	0           	Open  	;
 4               	J1              	J2              	601         	6           	100         	0           	Open  	;
 5               	J2              	J3              	1593        	6           	100         	0           	Open  	;
 6               	25W2            	J3              	1099        	6           	100         	0           	Open  	;
 J3-J4           	J3              	J4              	356         	8           	100         	0           	Open  	;
 30W6-30W5       	30W6            	30W5            	2072        	6           	100         	0           	Open  	;
 30W5-J6         	30W5            	J6              	947         	6           	100         	0           	Open  	;
 30W3-J6         	J6              	30W3            	774         	6           	100         	0           	Open  	;
 30W3-J5         	30W3            	J5              	1349        	8           	100         	0           	Open  	;
 12              	J5              	30W1            	701         	8           	100         	0           	Open  	;
 25W1-30W1       	30W1            	25W1            	2965        	8           	100         	0           	Open  	;
 25W1-J4         	25W1            	J4              	705         	10          	100         	0           	Open  	;
 30W2-J5         	30W2            	J5              	2081        	6           	100         	0           	Open  	;
 30W4-J6         	30W4            	J6              	2260        	6           	100         	0           	Open  	;
 J4-J7           	J4              	J7              	2144        	12          	100         	0           	Open  	;
 J7-J8           	J7              	J8              	1230        	12          	100         	0           	Open  	;
 24W2-J8         	24W2            	J8              	1375        	6           	100         	0           	Open  	;
 J8-J9           	J8              	J9              	635         	12          	100         	0           	Open  	;
 24W3-J9         	24W3            	J9              	831         	6           	100         	0           	Open  	;
 J9-TERMINAL     	J9              	TERMINAL        	2006        	14          	100         	0           	Open  	;
 24W1-J7         	24W1            	J7              	82          	6           	100         	0           	Open  	;
 7               	TERMINAL        	1               	113867      	17.43       	100         	0           	Open  	;
 P020            	18              	19              	709         	17.43       	100         	0           	Open  	;
 P019            	19              	16              	3792        	17.43       	100         	0           	Open  	;
 P018            	16              	13              	8440        	17.43       	100         	0           	Open  	;
 P017            	13              	20              	654         	17.43       	100         	0           	Open  	;
 P016            	20              	12              	1358        	17.43       	100         	0           	Open  	;
 P015            	12              	14              	12960       	17.43       	100         	0           	Open  	;
 P014            	14              	17              	5554        	17.43       	100         	0           	Open  	;
 P013            	17              	11              	5231        	17.43       	100         	0           	Open  	;
 P012            	11              	10              	4011        	17.43       	100         	0           	Open  	;
 P011            	10              	8               	3863        	17.43       	100         	0           	Open  	;
 P010            	8               	7               	19458       	17.43       	100         	0           	Open  	;
 P009            	7               	21              	1871        	17.43       	100         	0           	Open  	;
 P008            	21              	6               	12851       	17.43       	100         	0           	Open  	;
 P007            	6               	5               	14340       	17.43       	100         	0           	Open  	;
 P006            	5               	22              	1681        	17.43       	100         	0           	Open  	;
 P005            	22              	23              	2639        	17.43       	100         	0           	Open  	;
 P004            	23              	4               	2587        	17.43       	100         	0           	Open  	;
 P003            	4               	3               	895         	17.43       	100         	0           	Open  	;
 P002            	3               	2               	4436        	17.43       	100         	0           	Open  	;
 P001            	2               	24              	2859        	17.43       	100         	0           	Open  	;

[PUMPS]
;ID              	Node1           	Node2           	Parameters
 P24W1           	35              	24W1            	HEAD 8FAHC	;
 P24W3           	37              	24W3            	HEAD 8FAHC	;
 P24W2           	36              	24W2            	HEAD 8FAHC	;
 P25W2           	28              	25W2            	HEAD 8FAHC	;
 P30W5           	31              	30W5            	HEAD 8FAHC	;
 P30W4           	30              	30W4            	HEAD 8FAHC	;
 P30W1           	33              	30W1            	HEAD 8FAHC	;
 P25W1           	34              	25W1            	HEAD 8FAHC	;
 P25W4           	15              	25W4            	HEAD 8FAHC	;
 P25W3           	9               	25W3            	HEAD 8FAHC	;
 P25W5           	27              	25W5            	HEAD 8FAHC	;
 P30W2           	29              	30W2            	HEAD 8FAHC	;
 P30W6           	32              	30W6            	HEAD 8FAHC	;
 P30W3           	38              	30W3            	HEAD 8FAHC	;

[VALVES]
;ID              	Node1           	Node2           	Diameter    	Type	Setting     	MinorLoss   

[TAGS]

[DEMANDS]
;Junction        	Demand      	Pattern         	Category

[STATUS]
;ID              	Status/Setting

[PATTERNS]
;ID              	Multipliers

[CURVES]
;ID              	X-Value     	Y-Value
;PUMP: 8FAHC 17-stage turbine lift pump (at wellhead)
 8FAHC           	0           	652         
 8FAHC           	60          	648         
 8FAHC           	90          	632         
 8FAHC           	120         	606         
 8FAHC           	150         	557         
 8FAHC           	180         	484         

[CONTROLS]

[RULES]

[ENERGY]
 Global Efficiency  	75
 Global Price       	0
 Demand Charge      	0

[EMITTERS]
;Junction        	Coefficient

[QUALITY]
;Node            	InitQual

[SOURCES]
;Node            	Type        	Quality     	Pattern

[REACTIONS]
;Type     	Pipe/Tank       	Coefficient


[REACTIONS]
 Order Bulk            	1
 Order Tank            	1
 Order Wall            	1
 Global Bulk           	0
 Global Wall           	0
 Limiting Potential    	0
 Roughness Correlation 	0

[MIXING]
;Tank            	Model

[TIMES]
 Duration           	0
 Hydraulic Timestep 	1:00
 Quality Timestep   	0:05
 Pattern Timestep   	1:00
 Pattern Start      	0:00
 Report Timestep    	1:00
 Report Start       	0:00
 Start ClockTime    	12 am
 Statistic          	None

[REPORT]
 Status             	No
 Summary            	No
 Page               	0

[OPTIONS]
 Units              	GPM
 Headloss           	H-W
 Specific Gravity   	1
 Viscosity          	1
 Trials             	40
 Accuracy           	0.001
 CHECKFREQ          	2
 MAXCHECK           	10
 DAMPLIMIT          	0
 Unbalanced         	Continue 10
 Pattern            	1
 Demand Multiplier  	1.0
 Emitter Exponent   	0.5
 Quality            	None mg/L
 Diffusivity        	1
 Tolerance          	0.01

[COORDINATES]
;Node            	X-Coord           	Y-Coord
J8              	10349.473         	5606.052          
J9              	10384.160         	5685.629          
J7              	10249.912         	5327.790          
TERMINAL        	10418.847         	6028.420          
J4              	10186.005         	4940.517          
J3              	10134.133         	4873.901          
J2              	9922.976          	4649.399          
J1              	9833.069          	4559.492          
25W3            	9563.347          	4240.730          
25W4            	10102.791         	4469.585          
25W5            	9636.908          	4739.306          
25W1            	10300.432         	4801.569          
25W2            	9946.280          	5033.168          
30W1            	10799.009         	4793.396          
30W3            	11224.025         	4646.275          
30W5            	11591.827         	4441.940          
30W4            	11591.827         	4956.863          
30W6            	11550.960         	4016.924          
J6              	11412.012         	4556.367          
J5              	11003.343         	4695.315          
24W2            	10094.617         	5679.245          
24W3            	10552.327         	5654.725          
30W2            	10880.742         	4278.472          
24W1            	10331.645         	5319.616          
2               	2876.005          	24178.221         
3               	3733.934          	23993.131         
4               	3774.433          	24174.137         
5               	5144.947          	23942.240         
6               	6893.045          	21574.759         
7               	7844.220          	18859.882         
8               	10345.006         	16005.337         
10              	10333.365         	15221.783         
11              	10838.598         	14629.379         
12              	10684.821         	8871.063          
13              	10619.434         	8568.648          
14              	10773.118         	11519.042         
16              	10609.416         	7361.013          
17              	10805.858         	13221.543         
18              	10441.216         	6079.870          
19              	10602.409         	6079.870          
20              	10554.047         	8658.555          
21              	7573.039          	19341.077         
22              	4850.705          	24032.147         
23              	4262.221          	24040.320         
9               	9800.376          	3799.367          
15              	10274.432         	4142.649          
27              	9130.158          	4641.226          
28              	9432.573          	5066.242          
29              	11019.690         	3877.977          
30              	12172.137         	4728.009          
31              	12180.310         	4253.952          
32              	12163.964         	3886.150          
33              	11109.597         	5005.904          
34              	10512.940         	4327.513          
35              	10699.448         	5278.750          
36              	9432.573          	5671.072          
37              	11001.863         	5507.604          
38              	11313.932         	4016.924          
24              	2663.649          	24664.189         
1               	2588.020          	24680.679         

[VERTICES]
;Link            	X-Coord           	Y-Coord
J9-TERMINAL     	10414.767         	5846.822          
7               	5964.785          	15008.221         
7               	5944.366          	15073.561         
7               	5952.534          	15147.069         
7               	5948.450          	16266.021         
7               	5862.691          	16396.702         
7               	5866.775          	16543.717         
7               	5486.984          	17131.780         
7               	5360.388          	17683.088         
7               	5111.278          	18136.386         
7               	4984.681          	18148.638         
7               	4923.425          	18181.308         
7               	4927.508          	18132.303         
7               	4804.995          	18152.721         
7               	4941.236          	18464.098         
7               	4926.912          	18494.792         
7               	4919.750          	18510.139         
7               	4916.169          	18517.812         
P020            	10530.552         	6078.655          
P019            	10607.615         	7350.334          
P015            	10767.071         	11450.298         
P007            	6252.566          	22464.540         
P007            	5640.001          	23289.461         
P24W1           	10437.899         	5286.923          
P24W3           	10683.101         	5597.511          
P24W2           	9824.896          	5679.245          
P25W2           	9800.376          	5074.415          
P30W5           	11796.161         	4270.299          
P30W4           	11828.855         	4752.529          
P30W1           	10872.569         	4981.383          
P25W1           	10357.646         	4572.714          
P25W4           	10151.831         	4371.504          
P25W3           	9645.081          	4126.302          
P25W5           	9350.839          	4755.653          
P30W2           	10913.436         	4204.912          
P30W6           	11747.121         	3927.017          
P30W3           	11142.291         	4368.380          

[LABELS]
;X-Coord             Y-Coord             Label & Anchor Node

[BACKDROP]
  DIMENSIONS  	2108.405          	2755.301          	12659.925         	25724.745         
 UNITS          	None
 FILE           	C:\Users\userone\Desktop\PecosPipeline\GoogleEarthPathProfile.bmp
 OFFSET         	0.00            	0.00            

[END]
