[TITLE]


[JUNCTIONS]
;ID              	Elev        	Demand      	Pattern         
 J8              	2793.06     	0           	                	;
 J9              	2790        	0           	                	;
 J7              	2787        	0           	                	;
 TERMINAL        	2791.25     	0           	                	;
 J4              	2791.2      	0           	                	;
 J3              	2792.39     	0           	                	;
 J2              	2799.30     	0           	                	;
 J1              	2801.93     	0           	                	;
 25W3            	2804.14     	0           	                	;
 25W4            	2806        	0           	                	;
 25W5            	2805.21     	0           	                	;
 25W1            	2798.89     	0           	                	;
 25W2            	2796.07     	0           	                	;
 30W1            	2804.19     	0           	                	;
 30W3            	2806.95     	0           	                	;
 30W5            	2813.46     	0           	                	;
 30W4            	2802.59     	0           	                	;
 30W6            	2820.27     	0           	                	;
 J6              	2812.20     	0           	                	;
 J5              	806.20      	0           	                	;
 24W2            	2781.53     	0           	                	;
 24W3            	2792.37     	0           	                	;
 30W2            	2810.37     	0           	                	;
 24W1            	2787.48     	0           	                	;
 2               	2599        	0           	                	;
 3               	2590        	0           	                	;
 4               	2590        	0           	                	;
 5               	2572        	0           	                	;
 6               	2567        	0           	                	;
 7               	2572        	0           	                	;
 8               	2628        	0           	                	;
 10              	2634        	0           	                	;
 11              	2658        	0           	                	;
 12              	2770        	0           	                	;
 13              	2770        	0           	                	;
 14              	2735        	0           	                	;
 16              	2780        	0           	                	;
 17              	2680        	0           	                	;
 18              	2793        	0           	                	;
 19              	2794        	0           	                	;
 20              	2771        	0           	                	;
 21              	2565        	0           	                	;
 22              	2571        	0           	                	;
 23              	2581        	0           	                	;
 25W4FCV         	2806        	0           	                	;
 25W3FCV         	2804.14     	0           	                	;25W3FCV
 30W1FCV         	2804.19     	0           	                	;
 25W1FCV         	2798.89     	0           	                	;
 25W5FCV         	2805.21     	0           	                	;
 24W1FCV         	2787.49     	0           	                	;
 24W2FCV         	2781.53     	0           	                	;
 24W3FCV         	2792.37     	0           	                	;
 30W6FCV         	2820.27     	0           	                	;
 30W5FCV         	2813.46     	0           	                	;
 30W4FCV         	2802.59     	0           	                	;
 30W3FCV         	2806.95     	0           	                	;
 25W2FCV         	2796.07     	0           	                	;
 30W2FCV         	2810.37     	0           	                	;
 WDS             	2597        	300         	                	;

[RESERVOIRS]
;ID              	Head        	Pattern         
 9               	2700        	                	;
 15              	2650        	                	;
 27              	2700        	                	;
 28              	2495        	                	;
 29              	2583        	                	;
 30              	2643        	                	;
 31              	2658        	                	;
 32              	2660        	                	;
 33              	2650        	                	;
 34              	2600        	                	;
 35              	2460        	                	;
 36              	2449        	                	;
 37              	2435        	                	;
 38              	2601        	                	;
 FGN             	2597        	                	;

[TANKS]
;ID              	Elevation   	InitLevel   	MinLevel    	MaxLevel    	Diameter    	MinVol      	VolCurve        	Overflow
 TSR_ONE         	2597        	10          	0           	30          	75          	0           	                	;
 BIG_ISR         	2792        	10          	0           	30          	92          	0           	*               	Yes	;
 SMALL_ISR       	2792        	10          	0           	20          	50          	0           	                	;
 TSR_TWO         	2597        	10          	0           	30          	75          	0           	                	;

[PIPES]
;ID              	Node1           	Node2           	Length      	Diameter    	Roughness   	MinorLoss   	Status
 1               	25W3FCV         	J1              	1916        	6           	100         	0           	Open  	;
 2               	25W5            	J1              	1290        	6           	100         	0           	Open  	;
 3               	25W4FCV         	J2              	1101        	6           	100         	0           	Open  	;
 4               	J1              	J2              	601         	6           	100         	0           	Open  	;
 5               	J2              	J3              	1593        	6           	100         	0           	Open  	;
 6               	25W2            	J3              	1099        	6           	100         	0           	Open  	;
 J3-J4           	J3              	J4              	356         	8           	100         	0           	Open  	;
 30W6-30W5       	30W6FCV         	30W5            	2072        	6           	100         	0           	Open  	;
 30W5-J6         	30W5            	J6              	947         	6           	100         	0           	Open  	;
 30W3-J6         	J6              	30W3            	774         	6           	100         	0           	Open  	;
 30W3-J5         	30W3            	J5              	1349        	8           	100         	0           	Open  	;
 12              	J5              	30W1            	701         	8           	100         	0           	Open  	;
 25W1-30W1       	30W1            	25W1            	2965        	8           	100         	0           	Open  	;
 25W1-J4         	25W1            	J4              	705         	10          	100         	0           	Open  	;
 30W2-J5         	30W2            	J5              	2081        	6           	100         	0           	Open  	;
 30W4-J6         	30W4            	J6              	2260        	6           	100         	0           	Open  	;
 J4-J7           	J4              	J7              	2144        	12          	100         	0           	Open  	;
 J7-J8           	J7              	J8              	1230        	12          	100         	0           	Open  	;
 24W2-J8         	24W2FCV         	J8              	1375        	6           	100         	0           	Open  	;
 J8-J9           	J8              	J9              	635         	12          	100         	0           	Open  	;
 24W3-J9         	24W3FCV         	J9              	831         	6           	100         	0           	Open  	;
 J9-TERMINAL     	J9              	TERMINAL        	2006        	14          	100         	0           	Open  	;
 24W1-J7         	24W1FCV         	J7              	82          	6           	100         	0           	Open  	;
 P020            	18              	19              	709         	17.43       	100         	0           	Open  	;
 P019            	19              	16              	3792        	17.43       	100         	0           	Open  	;
 P018            	16              	13              	8440        	17.43       	100         	0           	Open  	;
 P017            	13              	20              	654         	17.43       	100         	0           	Open  	;
 P016            	20              	12              	1358        	17.43       	100         	0           	Open  	;
 P015            	12              	14              	12960       	17.43       	100         	0           	Open  	;
 P014            	14              	17              	5554        	17.43       	100         	0           	Open  	;
 P013            	17              	11              	5231        	17.43       	100         	0           	Open  	;
 P012            	11              	10              	4011        	17.43       	100         	0           	Open  	;
 P011            	10              	8               	3863        	17.43       	100         	0           	Open  	;
 P010            	8               	7               	19458       	17.43       	100         	0           	Open  	;
 P009            	7               	21              	1871        	17.43       	100         	0           	Open  	;
 P008            	21              	6               	12851       	17.43       	100         	0           	Open  	;
 P007            	6               	5               	14340       	17.43       	100         	0           	Open  	;
 P006            	5               	22              	1681        	17.43       	100         	0           	Open  	;
 P005            	22              	23              	2639        	17.43       	100         	0           	Open  	;
 P004            	23              	4               	2587        	17.43       	100         	0           	Open  	;
 P003            	4               	3               	895         	17.43       	100         	0           	Open  	;
 P002            	3               	2               	4436        	17.43       	100         	0           	Open  	;
 P001            	2               	TSR_ONE         	2859        	17.43       	100         	0           	Open  	;
 15              	TERMINAL        	BIG_ISR         	100         	14          	100         	0           	Open  	;
 16              	18              	SMALL_ISR       	1000        	17.43       	100         	0           	Open  	;
 8               	BIG_ISR         	SMALL_ISR       	1000        	12          	100         	0           	Open  	;
 17              	TSR_ONE         	TSR_TWO         	100         	17.43       	100         	0           	Open  	;
 18              	TSR_TWO         	WDS             	1000        	18          	100         	0           	Open  	;
 19              	WDS             	FGN             	1000        	12          	100         	0           	Open  	;

[PUMPS]
;ID              	Node1           	Node2           	Parameters
 P24W1           	35              	24W1            	HEAD 8FAHC	;
 P24W3           	37              	24W3            	HEAD 8FAHC	;
 P24W2           	36              	24W2            	HEAD 8FAHC	;
 P25W2           	28              	25W2FCV         	HEAD 8FAHC	;
 P30W5           	31              	30W5FCV         	HEAD 8FAHC	;
 P30W4           	30              	30W4FCV         	HEAD 8FAHC	;
 P30W1           	33              	30W1FCV         	HEAD 8FAHC	;
 P25W1           	34              	25W1FCV         	HEAD 8FAHC	;
 P25W4           	15              	25W4            	HEAD 8FAHC	;
 P25W3           	9               	25W3            	HEAD 8FAHC	;
 P25W5           	27              	25W5FCV         	HEAD 8FAHC	;
 P30W2           	29              	30W2FCV         	HEAD 8FAHC	;
 P30W6           	32              	30W6            	HEAD 8FAHC	;
 P30W3           	38              	30W3FCV         	HEAD 8FAHC	;

[VALVES]
;ID              	Node1           	Node2           	Diameter    	Type	Setting     	MinorLoss   
 9               	25W4            	25W4FCV         	6           	FCV 	150         	0           	;FCV25W4
 10              	25W3            	25W3FCV         	6           	FCV 	150         	0           	;
 FVC30W1         	30W1FCV         	30W1            	6           	FCV 	150         	0           	;
 FCV25W1         	25W1FCV         	25W1            	6           	FCV 	150         	0           	;
 FCV25W5         	25W5FCV         	25W5            	6           	FCV 	150         	0           	;
 11              	24W1            	24W1FCV         	6           	FCV 	150         	0           	;
 FCV24W2         	24W2            	24W2FCV         	6           	FCV 	150         	0           	;
 13              	24W3            	24W3FCV         	6           	FCV 	150         	0           	;
 FCV30W6         	30W6            	30W6FCV         	6           	FCV 	150         	0           	;
 14              	30W5FCV         	30W5            	6           	FCV 	150         	0           	;
 FCV30W4         	30W4FCV         	30W4            	6           	FCV 	150         	0           	;
 FCV30W3         	30W3FCV         	30W3            	6           	FCV 	150         	0           	;
 FCV25W2         	25W2FCV         	25W2            	6           	FCV 	150         	0           	;
 FCV30W2         	30W2FCV         	30W2            	6           	FCV 	150         	0           	;

[TAGS]

[DEMANDS]
;Junction        	Demand      	Pattern         	Category

[STATUS]
;ID              	Status/Setting

[PATTERNS]
;ID              	Multipliers

[CURVES]
;ID              	X-Value     	Y-Value
;PUMP: 8FAHC 17-stage turbine lift pump (at wellhead)
 8FAHC           	0           	652         
 8FAHC           	60          	648         
 8FAHC           	90          	632         
 8FAHC           	120         	606         
 8FAHC           	150         	557         
 8FAHC           	180         	484         

[CONTROLS]

[RULES]

[ENERGY]
 Global Efficiency  	75
 Global Price       	0
 Demand Charge      	0

[EMITTERS]
;Junction        	Coefficient

[QUALITY]
;Node            	InitQual

[SOURCES]
;Node            	Type        	Quality     	Pattern

[REACTIONS]
;Type     	Pipe/Tank       	Coefficient


[REACTIONS]
 Order Bulk            	1
 Order Tank            	1
 Order Wall            	1
 Global Bulk           	0
 Global Wall           	0
 Limiting Potential    	0
 Roughness Correlation 	0

[MIXING]
;Tank            	Model

[TIMES]
 Duration           	96
 Hydraulic Timestep 	1:00
 Quality Timestep   	0:05
 Pattern Timestep   	1:00
 Pattern Start      	0:00
 Report Timestep    	1:00
 Report Start       	0:00
 Start ClockTime    	12 am
 Statistic          	None

[REPORT]
 Status             	No
 Summary            	No
 Page               	0

[OPTIONS]
 Units              	GPM
 Headloss           	H-W
 Specific Gravity   	1
 Viscosity          	1
 Trials             	40
 Accuracy           	0.001
 CHECKFREQ          	2
 MAXCHECK           	10
 DAMPLIMIT          	0
 Unbalanced         	Continue 10
 Pattern            	1
 Demand Multiplier  	1.0
 Emitter Exponent   	0.5
 Quality            	None mg/L
 Diffusivity        	1
 Tolerance          	0.01

[COORDINATES]
;Node            	X-Coord           	Y-Coord
J8              	10349.473         	5606.052          
J9              	10384.160         	5685.629          
J7              	10249.912         	5327.790          
TERMINAL        	11598.857         	10180.191         
J4              	10186.005         	4940.517          
J3              	10134.133         	4873.901          
J2              	9922.976          	4649.399          
J1              	9833.069          	4559.492          
25W3            	9563.347          	4240.730          
25W4            	10102.791         	4469.585          
25W5            	9636.908          	4739.306          
25W1            	10300.432         	4801.569          
25W2            	9946.280          	5033.168          
30W1            	10799.009         	4793.396          
30W3            	11224.025         	4646.275          
30W5            	11591.827         	4441.940          
30W4            	11591.827         	4956.863          
30W6            	11550.960         	4016.924          
J6              	11412.012         	4556.367          
J5              	11003.343         	4695.315          
24W2            	10094.617         	5679.245          
24W3            	10552.327         	5654.725          
30W2            	10880.742         	4278.472          
24W1            	10331.645         	5319.616          
2               	2876.005          	24178.221         
3               	3733.934          	23993.131         
4               	3774.433          	24174.137         
5               	5144.947          	23942.240         
6               	6893.045          	21574.759         
7               	7844.220          	18859.882         
8               	6614.052          	24770.475         
10              	6948.884          	24753.734         
11              	7254.418          	25046.711         
12              	10188.379         	25021.599         
13              	10334.868         	25004.857         
14              	9376.413          	25021.599         
16              	10774.334         	25013.228         
17              	8124.980          	25042.526         
18              	11577.930         	25004.857         
19              	11293.323         	25017.413         
20              	10301.385         	24958.818         
21              	7573.039          	19341.077         
22              	4850.705          	24032.147         
23              	4262.221          	24040.320         
25W4FCV         	10097.674         	4483.522          
25W3FCV         	9572.698          	4259.291          
30W1FCV         	10796.741         	4803.511          
25W1FCV         	10285.004         	4783.596          
25W5FCV         	9608.637          	4748.251          
24W1FCV         	10319.586         	5322.111          
24W2FCV         	10132.550         	5668.553          
24W3FCV         	10527.876         	5657.926          
30W6FCV         	11552.742         	4049.692          
30W5FCV         	11622.881         	4415.263          
30W4FCV         	11631.383         	4920.047          
30W3FCV         	11206.301         	4588.483          
25W2FCV         	9911.927          	5041.196          
30W2FCV         	10897.189         	4243.572          
WDS             	1700.339          	25453.384         
9               	9800.376          	3799.367          
15              	10274.432         	4142.649          
27              	9130.158          	4641.226          
28              	9432.573          	5066.242          
29              	11019.690         	3877.977          
30              	12172.137         	4728.009          
31              	12180.310         	4253.952          
32              	12163.964         	3886.150          
33              	11109.597         	5005.904          
34              	10512.940         	4327.513          
35              	10699.448         	5278.750          
36              	9432.573          	5671.072          
37              	11001.863         	5507.604          
38              	11313.932         	4016.924          
FGN             	1308.479          	25471.610         
TSR_ONE         	2535.847          	24669.138         
BIG_ISR         	11571.707         	24892.504         
SMALL_ISR       	11569.614         	24963.656         
TSR_TWO         	2302.083          	24673.859         

[VERTICES]
;Link            	X-Coord           	Y-Coord
J9-TERMINAL     	10414.767         	5846.822          
P019            	11184.503         	25013.228         
P015            	9435.008          	25046.711         
P007            	6252.566          	22464.540         
P007            	5640.001          	23289.461         
P24W1           	10437.899         	5286.923          
P24W3           	10683.101         	5597.511          
P24W2           	9824.896          	5679.245          
P25W2           	9800.376          	5074.415          
P30W5           	11796.161         	4270.299          
P30W4           	11828.855         	4752.529          
P30W1           	10872.569         	4981.383          
P25W1           	10357.646         	4572.714          
P25W4           	10151.831         	4371.504          
P25W3           	9645.081          	4126.302          
P25W5           	9350.839          	4755.653          
P30W2           	10913.436         	4204.912          
P30W6           	11747.121         	3927.017          
P30W3           	11142.291         	4368.380          
9               	10166.749         	4509.027          
9               	10146.558         	4535.594          
10              	9490.869          	4274.169          
10              	9521.688          	4312.426          
FVC30W1         	10876.296         	4911.212          
FVC30W1         	10912.454         	4826.134          
FCV25W1         	10322.774         	4709.993          
FCV25W1         	10370.596         	4778.006          
FCV25W5         	9610.762          	4818.389          
FCV25W5         	9685.152          	4797.135          
11              	10379.098         	5385.873          
11              	10300.458         	5394.375          
FCV24W2         	10075.164         	5746.130          
FCV24W2         	10178.247         	5727.001          
13              	10611.186         	5704.323          
13              	10512.355         	5722.389          
FCV30W6         	11615.442         	3993.369          
FCV30W6         	11614.379         	4072.009          
14              	11684.518         	4445.018          
14              	11603.752         	4501.342          
FCV30W4         	11621.818         	4858.410          
FCV30W4         	11580.373         	4879.664          
FCV30W3         	11145.727         	4574.668          
FCV30W3         	11165.918         	4640.556          
FCV25W2         	9919.366          	5117.710          
FCV25W2         	10010.758         	5080.516          
FCV30W2         	10853.618         	4194.687          
FCV30W2         	10820.675         	4286.080          

[LABELS]
;X-Coord             Y-Coord             Label & Anchor Node

[BACKDROP]
  DIMENSIONS  	2108.405          	2755.301          	12659.925         	25724.745         
 UNITS          	None
 FILE           	C:\Users\userone\Desktop\PecosPipeline\PecosPipelineBasemap.bmp
 OFFSET         	234.38          	33.48           

[END]
