[TITLE]


[JUNCTIONS]
;ID              	Elev        	Demand      	Pattern         
 J8              	2793.06     	0           	                	;
 J9              	2790        	0           	                	;
 J7              	2787        	0           	                	;
 TERMINAL        	2791.25     	2100        	                	;
 J4              	2791.2      	0           	                	;
 J3              	2792.39     	0           	                	;
 J2              	2799.30     	0           	                	;
 J1              	2801.93     	0           	                	;
 25W5FCV         	2805.21     	0           	                	;
 25W1            	2798.89     	0           	                	;
 25W2FCV         	2796.07     	0           	                	;
 30W1            	2804.19     	0           	                	;
 30W3            	2806.95     	0           	                	;
 30W5            	2813.46     	0           	                	;
 30W4            	2802.59     	0           	                	;
 30W6            	2820.27     	0           	                	;
 J6              	2812.20     	0           	                	;
 J5              	806.20      	0           	                	;
 30W2            	2810.37     	0           	                	;
 2               	2599        	0           	                	;
 3               	2590        	0           	                	;
 4               	2590        	0           	                	;
 5               	2572        	0           	                	;
 6               	2567        	0           	                	;
 7               	2572        	0           	                	;
 8               	2628        	0           	                	;
 10              	2634        	0           	                	;
 11              	2658        	0           	                	;
 12              	2770        	0           	                	;
 13              	2770        	0           	                	;
 14              	2735        	0           	                	;
 16              	2780        	0           	                	;
 17              	2680        	0           	                	;
 18              	2793        	0           	                	;
 19              	2794        	0           	                	;
 20              	2771        	0           	                	;
 21              	2565        	0           	                	;
 22              	2571        	0           	                	;
 23              	2581        	0           	                	;
 25W4FCV         	2806        	0           	                	;
 25W3FCV         	2804.14     	0           	                	;
 30W1FCV         	2804.19     	0           	                	;
 25W1FCV         	2798.89     	0           	                	;
 24W1FCV         	2787.49     	0           	                	;
 24W2FCV         	2781.53     	0           	                	;
 24W3FCV         	2792.37     	0           	                	;
 30W6FCV         	2820.27     	0           	                	;
 30W5FCV         	2813.46     	0           	                	;
 30W4FCV         	2802.59     	0           	                	;
 30W3FCV         	2806.95     	0           	                	;
 WDS             	2597        	0           	                	;
 BOOST_IN        	2597        	0           	                	;
 WDSFCV          	2597        	0           	                	;
 TSR_MANIFOLD    	2597        	0           	                	;
 BOOST_MANIFOLD  	2597        	0           	                	;
 1               	2872        	0           	                	;

[RESERVOIRS]
;ID              	Head        	Pattern         
 9               	2187        	                	;
 15              	2184        	                	;
 27              	2186        	                	;
 28              	2161        	                	;
 29              	2205        	                	;
 30              	2221        	                	;
 31              	2223        	                	;
 32              	2226        	                	;
 33              	2195        	                	;
 34              	2161        	                	;
 35              	2148        	                	;
 36              	2142        	                	;
 37              	2138        	                	;
 38              	2208        	                	;
 24              	2685        	                	;

[TANKS]
;ID              	Elevation   	InitLevel   	MinLevel    	MaxLevel    	Diameter    	MinVol      	VolCurve        	Overflow
 TSR_ONE         	2597        	29          	0           	30          	75          	0           	                	;
 BIG_ISR         	2872        	15          	0           	30          	92          	0           	                	;
 SMALL_ISR       	2872        	15          	0           	30          	50          	0           	                	;
 TSR_TWO         	2597        	29          	0           	30          	75          	0           	                	;

[PIPES]
;ID              	Node1           	Node2           	Length      	Diameter    	Roughness   	MinorLoss   	Status
 1               	25W3FCV         	J1              	1916        	6           	150         	0           	CV    	;
 2               	25W5FCV         	J1              	1290        	6           	150         	0           	CV    	;
 3               	25W4FCV         	J2              	1101        	6           	150         	0           	CV    	;
 4               	J1              	J2              	601         	6           	150         	0           	Open  	;
 5               	J2              	J3              	1593        	6           	150         	0           	Open  	;
 6               	25W2FCV         	J3              	1099        	6           	150         	0           	CV    	;
 J3-J4           	J3              	J4              	356         	8           	150         	0           	Open  	;
 30W6-30W5       	30W6FCV         	30W5            	2072        	6           	150         	0           	Open  	;
 30W5-J6         	30W5            	J6              	947         	6           	150         	0           	Open  	;
 30W3-J6         	J6              	30W3            	774         	6           	150         	0           	Open  	;
 30W3-J5         	30W3            	J5              	1349        	8           	150         	0           	Open  	;
 12              	J5              	30W1            	701         	8           	150         	0           	Open  	;
 25W1-30W1       	30W1            	25W1            	2965        	8           	150         	0           	Open  	;
 25W1-J4         	25W1            	J4              	705         	10          	150         	0           	Open  	;
 30W2-J5         	30W2            	J5              	2081        	6           	150         	0           	CV    	;
 30W4-J6         	30W4            	J6              	2260        	6           	150         	0           	Open  	;
 J4-J7           	J4              	J7              	2144        	12          	150         	0           	Open  	;
 J7-J8           	J7              	J8              	1230        	12          	150         	0           	Open  	;
 24W2-J8         	24W2FCV         	J8              	1375        	6           	150         	0           	CV    	;
 J8-J9           	J8              	J9              	635         	12          	150         	0           	Open  	;
 24W3-J9         	24W3FCV         	J9              	831         	6           	150         	0           	CV    	;
 J9-TERMINAL     	J9              	TERMINAL        	2006        	14          	150         	0           	Open  	;
 24W1-J7         	24W1FCV         	J7              	82          	6           	150         	0           	CV    	;
 P020            	18              	19              	709         	17.43       	150         	0           	Open  	;
 P019            	19              	16              	3792        	17.43       	150         	0           	Open  	;
 P018            	16              	13              	8440        	17.43       	150         	0           	Open  	;
 P017            	13              	20              	654         	17.43       	150         	0           	Open  	;
 P016            	20              	12              	1358        	17.43       	150         	0           	Open  	;
 P015            	12              	14              	12960       	17.43       	150         	0           	Open  	;
 P014            	14              	17              	5554        	17.43       	150         	0           	Open  	;
 P013            	17              	11              	5231        	17.43       	150         	0           	Open  	;
 P012            	11              	10              	4011        	17.43       	150         	0           	Open  	;
 P011            	10              	8               	3863        	17.43       	150         	0           	Open  	;
 P010            	8               	7               	19458       	17.43       	150         	0           	Open  	;
 P009            	7               	21              	1871        	17.43       	150         	0           	Open  	;
 P008            	21              	6               	12851       	17.43       	150         	0           	Open  	;
 P007            	6               	5               	14340       	17.43       	150         	0           	Open  	;
 P006            	5               	22              	1681        	17.43       	150         	0           	Open  	;
 P005            	22              	23              	2639        	17.43       	150         	0           	Open  	;
 P004            	23              	4               	2587        	17.43       	150         	0           	Open  	;
 P003            	4               	3               	895         	17.43       	150         	0           	Open  	;
 P002            	3               	2               	4436        	17.43       	150         	0           	Open  	;
 P001            	2               	TSR_MANIFOLD    	2859        	17.43       	150         	0           	Open  	;
 8               	SMALL_ISR       	BIG_ISR         	1000        	12          	150         	0           	CV    	;
 17              	TSR_MANIFOLD    	TSR_TWO         	100         	17.43       	150         	0           	CV    	;
 18              	BOOST_MANIFOLD  	BOOST_IN        	1000        	17.43       	150         	0           	Open  	;
 7               	TSR_MANIFOLD    	TSR_ONE         	100         	17.43       	150         	0           	CV    	;
 14              	TSR_TWO         	BOOST_MANIFOLD  	500         	17.43       	150         	0           	Open  	;
 19              	TSR_ONE         	BOOST_MANIFOLD  	500         	17.43       	150         	0           	Open  	;
 9               	25W1FCV         	25W1            	100         	8           	150         	0           	CV    	;
 10              	30W1FCV         	30W1            	100         	8           	150         	0           	CV    	;
 11              	30W3FCV         	30W3            	100         	6           	150         	0           	CV    	;
 13              	30W4FCV         	30W4            	100         	6           	150         	0           	CV    	;
 21              	30W6            	30W6FCV         	100         	6           	150         	0           	CV    	;
 22              	30W5FCV         	30W5            	100         	6           	150         	0           	Open  	;
 23              	BIG_ISR         	1               	100         	17.43       	150         	0           	CV    	;
 24              	WDS             	24              	10          	24          	150         	0           	CV    	;
 25              	WDSFCV          	WDS             	100         	18          	150         	0           	Open  	;
 26              	1               	18              	100         	18          	150         	0           	Closed	;
 15              	TERMINAL        	SMALL_ISR       	200         	16          	150         	0           	CV    	;

[PUMPS]
;ID              	Node1           	Node2           	Parameters
 P24W1           	35              	24W1FCV         	HEAD 8FAHC	;
 P24W3           	37              	24W3FCV         	HEAD 8FAHC	;
 P24W2           	36              	24W2FCV         	HEAD 8FAHC	;
 P25W2           	28              	25W2FCV         	HEAD 8FAHC	;
 P30W5           	31              	30W5FCV         	HEAD 8FAHC	;
 P30W4           	30              	30W4FCV         	HEAD 8FAHC	;
 P30W1           	33              	30W1FCV         	HEAD 8FAHC	;
 P25W1           	34              	25W1FCV         	HEAD 8FAHC	;
 P25W4           	15              	25W4FCV         	HEAD 8FAHC	;
 P25W3           	9               	25W3FCV         	HEAD 8FAHC	SPEED 1.0	;
 P25W5           	27              	25W5FCV         	HEAD 8FAHC	;
 P30W2           	29              	30W2            	HEAD 8FAHC	;
 P30W6           	32              	30W6            	HEAD 8FAHC	;
 P30W3           	38              	30W3FCV         	HEAD 8FAHC	;
 BOOST_1         	BOOST_IN        	WDSFCV          	HEAD BOOST	;

[VALVES]
;ID              	Node1           	Node2           	Diameter    	Type	Setting     	MinorLoss   

[TAGS]

[DEMANDS]
;Junction        	Demand      	Pattern         	Category

[STATUS]
;ID              	Status/Setting
 BOOST_1         	Closed

[PATTERNS]
;ID              	Multipliers
;Generic Pattern Max Well Flow at Hour 0800
 2               	1           	1           	2           	2.5         	3.5         	4.5         
 2               	6           	7           	6           	4.5         	3.5         	2.5         
 2               	1.5         	1           	1.5         	2.5         	3.5         	4           
 2               	5           	4           	3.5         	2.5         	1.5         	0.9         
;Multiple Time Constant Pattern
 1               	1           	1           	1           	1           	1           	1           
 1               	1           	1           	1           	1           	1           	1           
 1               	1           	1           	1           	1           	1           	1           
 1               	1           	1           	1           	1           	1           	1           

[CURVES]
;ID              	X-Value     	Y-Value
;PUMP: 8FAHC 17-stage turbine lift pump (at wellhead)
 8FAHC           	0           	652         
 8FAHC           	60          	648         
 8FAHC           	90          	632         
 8FAHC           	120         	606         
 8FAHC           	150         	557         
 8FAHC           	180         	484         
 8FAHC           	220         	404         
;PUMP: Booster Station Generic
 BOOST           	0           	100         
 BOOST           	2100        	60          
 BOOST           	2500        	40          
;PUMP: WellBoost
 WB              	0           	812         
 WB              	112         	717         
 WB              	168         	485         

[CONTROLS]

[RULES]

[ENERGY]
 Global Efficiency  	75
 Global Price       	0
 Demand Charge      	0

[EMITTERS]
;Junction        	Coefficient

[QUALITY]
;Node            	InitQual

[SOURCES]
;Node            	Type        	Quality     	Pattern

[REACTIONS]
;Type     	Pipe/Tank       	Coefficient


[REACTIONS]
 Order Bulk            	1
 Order Tank            	1
 Order Wall            	1
 Global Bulk           	0
 Global Wall           	0
 Limiting Potential    	0
 Roughness Correlation 	0

[MIXING]
;Tank            	Model

[TIMES]
 Duration           	0
 Hydraulic Timestep 	1:00
 Quality Timestep   	0:05
 Pattern Timestep   	1:00
 Pattern Start      	0:00
 Report Timestep    	1:00
 Report Start       	0:00
 Start ClockTime    	12 am
 Statistic          	None

[REPORT]
 Status             	Full
 Summary            	No
 Page               	0

[OPTIONS]
 Units              	GPM
 Headloss           	H-W
 Specific Gravity   	1
 Viscosity          	1
 Trials             	40
 Accuracy           	0.001
 CHECKFREQ          	2
 MAXCHECK           	10
 DAMPLIMIT          	0
 Unbalanced         	Continue 10
 Pattern            	2
 Demand Multiplier  	1.0
 Emitter Exponent   	0.5
 Quality            	None mg/L
 Diffusivity        	1
 Tolerance          	0.01

[COORDINATES]
;Node            	X-Coord           	Y-Coord
J8              	11872.242         	4586.199          
J9              	11899.983         	4653.569          
J7              	11796.946         	4288.975          
TERMINAL        	11931.687         	4974.571          
J4              	11721.649         	3801.528          
J3              	11666.167         	3746.047          
J2              	11436.314         	3468.638          
J1              	11353.092         	3377.489          
25W5FCV         	11119.276         	3555.823          
25W1            	11838.557         	3710.380          
25W2FCV         	11471.981         	3908.529          
30W1            	12480.560         	3658.861          
30W3            	12924.414         	3500.342          
30W5            	13277.119         	3333.896          
30W4            	13300.897         	3896.640          
30W6            	13427.713         	2719.634          
J6              	13082.933         	3421.082          
J5              	12635.116         	3587.527          
30W2            	12500.375         	3135.747          
2               	3076.404          	24807.315         
3               	4039.408          	24615.110         
4               	4090.927          	24809.296         
5               	5596.860          	24623.036         
6               	7713.093          	21785.541         
7               	8676.097          	19142.232         
8               	11553.222         	16039.217         
10              	11553.222         	15151.509         
11              	12171.447         	14564.988         
12              	12187.299         	8208.364          
13              	12127.855         	7835.844          
14              	12139.743         	10681.265         
16              	12115.966         	6837.173          
17              	12187.299         	12282.310         
18              	11979.243         	5101.386          
19              	12113.984         	5113.275          
20              	11981.224         	7923.030          
21              	8466.059          	19483.048         
22              	5279.822          	24694.370         
23              	4693.300          	24690.407         
25W4FCV         	11666.167         	3294.267          
25W3FCV         	11067.757         	3080.266          
30W1FCV         	12575.671         	4003.640          
25W1FCV         	11872.516         	3782.819          
24W1FCV         	11709.760         	4308.790          
24W2FCV         	11638.426         	4633.754          
24W3FCV         	12113.984         	4606.014          
30W6FCV         	13233.527         	2854.376          
30W5FCV         	13451.491         	3250.674          
30W4FCV         	13444.635         	3949.274          
30W3FCV         	12793.636         	2981.191          
WDS             	2555.271          	25550.374         
BOOST_IN        	2787.741          	25560.900         
WDSFCV          	2696.066          	25632.095         
TSR_MANIFOLD    	2810.884          	25274.947         
BOOST_MANIFOLD  	2785.124          	25473.096         
1               	11884.111         	5099.439          
9               	10647.681         	3254.637          
15              	11872.242         	2632.449          
27              	10715.051         	3726.232          
28              	11032.090         	4082.900          
29              	12504.338         	2707.745          
30              	13832.204         	3957.183          
31              	13764.566         	3100.080          
32              	13756.640         	2652.263          
33              	12791.654         	4007.603          
34              	12136.846         	3902.083          
35              	11349.129         	4376.161          
36              	11341.203         	4701.125          
37              	12356.807         	4574.827          
38              	12940.266         	2676.041          
24              	2503.469          	25556.810         
TSR_ONE         	2818.810          	25376.003         
BIG_ISR         	11829.771         	5097.463          
SMALL_ISR       	11827.795         	5039.170          
TSR_TWO         	2741.532          	25387.892         

[VERTICES]
;Link            	X-Coord           	Y-Coord
J9-TERMINAL     	11935.650         	4808.126          
P007            	7578.351          	22134.283         
P007            	6413.234          	23616.439         
P001            	3082.348          	24872.704         
P001            	2888.162          	25161.011         

[LABELS]
;X-Coord             Y-Coord             Label & Anchor Node
9318.100          	23537.179         	"Note 0: Layout use with PecosPipelineBasemapVertical.bmp"	
9310.174          	23172.585         	"Note 1: Check Valves on Each Pump"	

[BACKDROP]
  DIMENSIONS  	2108.405          	2755.301          	12659.925         	25724.745         
 UNITS          	None
 FILE           	
 OFFSET         	0.00            	0.00            

[END]
