[TITLE]


[JUNCTIONS]
;ID              	Elev        	Demand      	Pattern         
 J8              	2793.06     	0           	                	;
 J9              	2790        	0           	                	;
 J7              	2787        	0           	                	;
 TERMINAL        	2791.25     	0           	                	;
 J4              	2791.2      	0           	                	;
 J3              	2792.39     	0           	                	;
 J2              	2799.30     	0           	                	;
 J1              	2801.93     	0           	                	;
 25W3            	2804.14     	0           	                	;
 25W4            	2806        	0           	                	;
 25W5            	2805.21     	0           	                	;
 25W1            	2798.89     	0           	                	;
 25W2            	2796.07     	0           	                	;
 30W1            	2804.19     	0           	                	;
 30W3            	2806.95     	0           	                	;
 30W5            	2813.46     	0           	                	;
 30W4            	2802.59     	0           	                	;
 30W6            	2820.27     	0           	                	;
 J6              	2812.20     	0           	                	;
 J5              	806.20      	0           	                	;
 24W2            	2781.53     	0           	                	;
 24W3            	2792.37     	0           	                	;
 30W2            	2810.37     	0           	                	;
 24W1            	2787.48     	0           	                	;
 2               	2599        	0           	                	;
 3               	2590        	0           	                	;
 4               	2590        	0           	                	;
 5               	2572        	0           	                	;
 6               	2567        	0           	                	;
 7               	2572        	0           	                	;
 8               	2628        	0           	                	;
 10              	2634        	0           	                	;
 11              	2658        	0           	                	;
 12              	2770        	0           	                	;
 13              	2770        	0           	                	;
 14              	2735        	0           	                	;
 16              	2780        	0           	                	;
 17              	2680        	0           	                	;
 18              	2793        	0           	                	;
 19              	2794        	0           	                	;
 20              	2771        	0           	                	;
 21              	2565        	0           	                	;
 22              	2571        	0           	                	;
 23              	2581        	0           	                	;
 25W4FCV         	2806        	0           	                	;
 25W3FCV         	2804.14     	0           	                	;25W3FCV
 30W1FCV         	2804.19     	0           	                	;
 25W1FCV         	2798.89     	0           	                	;
 25W5FCV         	2805.21     	0           	                	;
 24W1FCV         	2787.49     	0           	                	;
 24W2FCV         	2781.53     	0           	                	;
 24W3FCV         	2792.37     	0           	                	;
 30W6FCV         	2820.27     	0           	                	;
 30W5FCV         	2813.46     	0           	                	;
 30W4FCV         	2802.59     	0           	                	;
 30W3FCV         	2806.95     	0           	                	;
 25W2FCV         	2796.07     	0           	                	;
 30W2FCV         	2810.37     	0           	                	;
 WDS             	2597        	300         	                	;
 BOOST_IN        	2597        	0           	                	;
 WDSFCV          	2597        	0           	                	;
 TSR_MANIFOLD    	2597        	0           	                	;
 BOOST_MANIFOLD  	2597        	0           	                	;

[RESERVOIRS]
;ID              	Head        	Pattern         
 9               	2700        	                	;
 15              	2650        	                	;
 27              	2700        	                	;
 28              	2495        	                	;
 29              	2583        	                	;
 30              	2643        	                	;
 31              	2658        	                	;
 32              	2660        	                	;
 33              	2650        	                	;
 34              	2600        	                	;
 35              	2460        	                	;
 36              	2449        	                	;
 37              	2435        	                	;
 38              	2601        	                	;
 FGN             	2597        	                	;

[TANKS]
;ID              	Elevation   	InitLevel   	MinLevel    	MaxLevel    	Diameter    	MinVol      	VolCurve        	Overflow
 TSR_ONE         	2597        	29          	0           	30          	75          	0           	                	;
 BIG_ISR         	2792        	15          	0           	30          	92          	0           	                	;
 SMALL_ISR       	2792        	15          	0           	30          	50          	0           	                	;
 TSR_TWO         	2597        	29          	0           	30          	75          	0           	                	;

[PIPES]
;ID              	Node1           	Node2           	Length      	Diameter    	Roughness   	MinorLoss   	Status
 1               	25W3FCV         	J1              	1916        	6           	150         	0           	Open  	;
 2               	25W5            	J1              	1290        	6           	150         	0           	Open  	;
 3               	25W4FCV         	J2              	1101        	6           	150         	0           	Open  	;
 4               	J1              	J2              	601         	6           	150         	0           	Open  	;
 5               	J2              	J3              	1593        	6           	150         	0           	Open  	;
 6               	25W2            	J3              	1099        	6           	150         	0           	Open  	;
 J3-J4           	J3              	J4              	356         	8           	150         	0           	Open  	;
 30W6-30W5       	30W6FCV         	30W5            	2072        	6           	150         	0           	Open  	;
 30W5-J6         	30W5            	J6              	947         	6           	150         	0           	Open  	;
 30W3-J6         	J6              	30W3            	774         	6           	150         	0           	Open  	;
 30W3-J5         	30W3            	J5              	1349        	8           	150         	0           	Open  	;
 12              	J5              	30W1            	701         	8           	150         	0           	Open  	;
 25W1-30W1       	30W1            	25W1            	2965        	8           	150         	0           	Open  	;
 25W1-J4         	25W1            	J4              	705         	10          	150         	0           	Open  	;
 30W2-J5         	30W2            	J5              	2081        	6           	150         	0           	Open  	;
 30W4-J6         	30W4            	J6              	2260        	6           	150         	0           	Open  	;
 J4-J7           	J4              	J7              	2144        	12          	150         	0           	Open  	;
 J7-J8           	J7              	J8              	1230        	12          	150         	0           	Open  	;
 24W2-J8         	24W2FCV         	J8              	1375        	6           	150         	0           	Open  	;
 J8-J9           	J8              	J9              	635         	12          	150         	0           	Open  	;
 24W3-J9         	24W3FCV         	J9              	831         	6           	150         	0           	Open  	;
 J9-TERMINAL     	J9              	TERMINAL        	2006        	14          	150         	0           	Open  	;
 24W1-J7         	24W1FCV         	J7              	82          	6           	150         	0           	Open  	;
 P020            	18              	19              	709         	17.43       	150         	0           	Open  	;
 P019            	19              	16              	3792        	17.43       	150         	0           	Open  	;
 P018            	16              	13              	8440        	17.43       	150         	0           	Open  	;
 P017            	13              	20              	654         	17.43       	150         	0           	Open  	;
 P016            	20              	12              	1358        	17.43       	150         	0           	Open  	;
 P015            	12              	14              	12960       	17.43       	150         	0           	Open  	;
 P014            	14              	17              	5554        	17.43       	150         	0           	Open  	;
 P013            	17              	11              	5231        	17.43       	150         	0           	Open  	;
 P012            	11              	10              	4011        	17.43       	150         	0           	Open  	;
 P011            	10              	8               	3863        	17.43       	150         	0           	Open  	;
 P010            	8               	7               	19458       	17.43       	150         	0           	Open  	;
 P009            	7               	21              	1871        	17.43       	150         	0           	Open  	;
 P008            	21              	6               	12851       	17.43       	150         	0           	Open  	;
 P007            	6               	5               	14340       	17.43       	150         	0           	Open  	;
 P006            	5               	22              	1681        	17.43       	150         	0           	Open  	;
 P005            	22              	23              	2639        	17.43       	150         	0           	Open  	;
 P004            	23              	4               	2587        	17.43       	150         	0           	Open  	;
 P003            	4               	3               	895         	17.43       	150         	0           	Open  	;
 P002            	3               	2               	4436        	17.43       	150         	0           	Open  	;
 P001            	2               	TSR_MANIFOLD    	2859        	17.43       	150         	0           	Open  	;
 15              	TERMINAL        	SMALL_ISR       	100         	14          	150         	0           	Open  	;
 16              	SMALL_ISR       	18              	1000        	17.43       	150         	0           	Open  	;
 8               	BIG_ISR         	SMALL_ISR       	1000        	12          	150         	0           	Open  	;
 17              	TSR_MANIFOLD    	TSR_TWO         	100         	17.43       	150         	0           	Open  	;
 18              	BOOST_MANIFOLD  	BOOST_IN        	1000        	17.43       	150         	0           	Open  	;
 7               	TSR_MANIFOLD    	TSR_ONE         	1000        	12          	150         	0           	Open  	;
 14              	TSR_TWO         	BOOST_MANIFOLD  	1000        	12          	150         	0           	Open  	;
 19              	TSR_ONE         	BOOST_MANIFOLD  	1000        	12          	150         	0           	Open  	;
 20              	WDSFCV          	WDS             	1000        	17.43       	100         	0           	Open  	;

[PUMPS]
;ID              	Node1           	Node2           	Parameters
 P24W1           	35              	24W1            	HEAD 8FAHC	;
 P24W3           	37              	24W3            	HEAD 8FAHC	;
 P24W2           	36              	24W2            	HEAD 8FAHC	;
 P25W2           	28              	25W2FCV         	HEAD 8FAHC	;
 P30W5           	31              	30W5FCV         	HEAD 8FAHC	;
 P30W4           	30              	30W4FCV         	HEAD 8FAHC	;
 P30W1           	33              	30W1FCV         	HEAD 8FAHC	;
 P25W1           	34              	25W1FCV         	HEAD 8FAHC	;
 P25W4           	15              	25W4            	HEAD 8FAHC	;
 P25W3           	9               	25W3            	HEAD 8FAHC	;
 P25W5           	27              	25W5FCV         	HEAD 8FAHC	;
 P30W2           	29              	30W2FCV         	HEAD 8FAHC	;
 P30W6           	32              	30W6            	HEAD 8FAHC	;
 P30W3           	38              	30W3FCV         	HEAD 8FAHC	;
 BOOST_1         	BOOST_IN        	WDSFCV          	HEAD BOOST	;

[VALVES]
;ID              	Node1           	Node2           	Diameter    	Type	Setting     	MinorLoss   
 FCV25W4         	25W4            	25W4FCV         	6           	FCV 	150         	0           	;FCV25W4
 FCV25W3         	25W3            	25W3FCV         	6           	FCV 	150         	0           	;
 FVC30W1         	30W1FCV         	30W1            	6           	FCV 	150         	0           	;
 FCV25W1         	25W1FCV         	25W1            	6           	FCV 	150         	0           	;
 FCV25W5         	25W5FCV         	25W5            	6           	FCV 	150         	0           	;
 FCV24W1         	24W1            	24W1FCV         	6           	FCV 	150         	0           	;
 FCV24W2         	24W2            	24W2FCV         	6           	FCV 	150         	0           	;
 FCV24W3         	24W3            	24W3FCV         	6           	FCV 	150         	0           	;
 FCV30W6         	30W6            	30W6FCV         	6           	FCV 	150         	0           	;
 FCV30W5         	30W5FCV         	30W5            	6           	FCV 	150         	0           	;
 FCV30W4         	30W4FCV         	30W4            	6           	FCV 	150         	0           	;
 FCV30W3         	30W3FCV         	30W3            	6           	FCV 	150         	0           	;
 FCV25W2         	25W2FCV         	25W2            	6           	FCV 	150         	0           	;
 FCV30W2         	30W2FCV         	30W2            	6           	FCV 	150         	0           	;

[TAGS]

[DEMANDS]
;Junction        	Demand      	Pattern         	Category

[STATUS]
;ID              	Status/Setting

[PATTERNS]
;ID              	Multipliers

[CURVES]
;ID              	X-Value     	Y-Value
;PUMP: 8FAHC 17-stage turbine lift pump (at wellhead)
 8FAHC           	0           	652         
 8FAHC           	60          	648         
 8FAHC           	90          	632         
 8FAHC           	120         	606         
 8FAHC           	150         	557         
 8FAHC           	180         	484         
;PUMP: Booster Station Generic
 BOOST           	0           	25          
 BOOST           	2100        	11          
 BOOST           	2500        	7           

[CONTROLS]

[RULES]
RULE 1
IF TANK SMALL_ISR LEVEL > 29.0
THEN PUMP P24W3 STATUS IS CLOSED
AND  PUMP P24W2 STATUS IS CLOSED
AND  PUMP P24W1 STATUS IS CLOSED
AND  PUMP P25W1 STATUS IS CLOSED
AND  PUMP P30W1 STATUS IS CLOSED
AND  PUMP P30W2 STATUS IS CLOSED
AND  PUMP P30W3 STATUS IS CLOSED
AND  PUMP P30W4 STATUS IS CLOSED
AND  PUMP P30W5 STATUS IS CLOSED
AND  PUMP P30W6 STATUS IS CLOSED
AND  PUMP P25W2 STATUS IS CLOSED
AND  PUMP P25W5 STATUS IS CLOSED
AND  PUMP P25W4 STATUS IS CLOSED
AND  PUMP P25W3 STATUS IS CLOSED

AND  FCV25W4               0.00      0.00      0.00      Open Valve
AND  FCV25W3               0.00      0.00      0.00      Open Valve
AND  FVC30W1               0.00      0.00      0.00      Open Valve
AND  FCV25W1               0.00      0.00      0.00      Open Valve
AND  FCV25W5               0.00      0.00      0.00      Open Valve
AND  FCV24W1               0.00      0.00      0.00      Open Valve
AND  FCV24W2               0.00      0.00      0.00      Open Valve
AND  FCV24W3               0.00      0.00      0.00      Open Valve
AND  FCV30W6               0.00      0.00      0.00      Open Valve
AND  FCV30W5               0.00      0.00      0.00      Open Valve
AND  FCV30W4               0.00      0.00      0.00      Open Valve
AND  FCV30W3               0.00      0.00      0.00      Open Valve
AND  FCV25W2               0.00      0.00      0.00      Open Valve
AND  FCV30W2               0.00      0.00      0.00      Open Valve
  
AND  PIPE 15      STATUS IS CLOSED


[ENERGY]
 Global Efficiency  	75
 Global Price       	0
 Demand Charge      	0

[EMITTERS]
;Junction        	Coefficient

[QUALITY]
;Node            	InitQual

[SOURCES]
;Node            	Type        	Quality     	Pattern

[REACTIONS]
;Type     	Pipe/Tank       	Coefficient


[REACTIONS]
 Order Bulk            	1
 Order Tank            	1
 Order Wall            	1
 Global Bulk           	0
 Global Wall           	0
 Limiting Potential    	0
 Roughness Correlation 	0

[MIXING]
;Tank            	Model

[TIMES]
 Duration           	72
 Hydraulic Timestep 	1:00
 Quality Timestep   	0:05
 Pattern Timestep   	1:00
 Pattern Start      	0:00
 Report Timestep    	1:00
 Report Start       	0:00
 Start ClockTime    	12 am
 Statistic          	None

[REPORT]
 Status             	No
 Summary            	No
 Page               	0

[OPTIONS]
 Units              	GPM
 Headloss           	H-W
 Specific Gravity   	1
 Viscosity          	1
 Trials             	40
 Accuracy           	0.001
 CHECKFREQ          	2
 MAXCHECK           	10
 DAMPLIMIT          	0
 Unbalanced         	Continue 10
 Pattern            	1
 Demand Multiplier  	1.0
 Emitter Exponent   	0.5
 Quality            	None mg/L
 Diffusivity        	1
 Tolerance          	0.01

[COORDINATES]
;Node            	X-Coord           	Y-Coord
J8              	11278.674         	5103.307          
J9              	11278.674         	5176.552          
J7              	11222.172         	4812.422          
TERMINAL        	11337.270         	5546.959          
J4              	11102.888         	4366.678          
J3              	11048.478         	4324.824          
J2              	10826.652         	4077.886          
J1              	10738.759         	3989.992          
25W3            	10232.326         	3755.610          
25W4            	11199.152         	3701.200          
25W5            	10537.860         	4169.964          
25W1            	11224.264         	4278.785          
25W2            	10897.804         	4483.869          
30W1            	11810.219         	4216.004          
30W3            	12220.388         	4069.515          
30W5            	12580.332         	3893.728          
30W4            	12609.630         	4416.903          
30W6            	12488.253         	3282.661          
J6              	12379.433         	3994.178          
J5              	11960.894         	4165.779          
24W2            	10968.955         	5199.571          
24W3            	11571.652         	5117.956          
30W2            	11839.517         	3730.498          
24W1            	11006.624         	4868.925          
2               	3466.636          	24485.868         
3               	4370.681          	24251.486         
4               	4404.164          	24485.868         
5               	5860.681          	24167.778         
6               	7685.513          	21706.766         
7               	8589.559          	19011.373         
8               	11301.694         	15981.147         
10              	11268.211         	15244.518         
11              	11870.908         	14440.922         
12              	11636.526         	8472.550          
13              	11590.486         	8187.943          
14              	11703.492         	10808.000         
16              	11536.076         	6856.987          
17              	11736.975         	12331.483         
18              	11385.402         	5609.740          
19              	11502.593         	5609.740          
20              	11473.295         	8229.797          
21              	8338.435          	19597.328         
22              	5525.850          	24284.969         
23              	4973.378          	24318.453         
25W4FCV         	11014.995         	3902.099          
25W3FCV         	10458.337         	3663.532          
30W1FCV         	11893.927         	4416.903          
25W1FCV         	11320.528         	4442.015          
25W5FCV         	10324.405         	4270.414          
24W1FCV         	11123.815         	4847.998          
24W2FCV         	11050.570         	5170.274          
24W3FCV         	11492.130         	5132.605          
30W6FCV         	12513.366         	3471.003          
30W5FCV         	12873.310         	3893.728          
30W4FCV         	12689.152         	4638.728          
30W3FCV         	12061.343         	3584.009          
25W2FCV         	10751.315         	4542.464          
30W2FCV         	11693.028         	3416.593          
WDS             	2127.310          	25758.228         
BOOST_IN        	2206.832          	25555.237         
WDSFCV          	1947.338          	25607.554         
TSR_MANIFOLD    	2857.661          	24849.998         
BOOST_MANIFOLD  	2851.383          	24973.467         
9               	9956.090          	3751.425          
15              	10948.028         	3705.386          
27              	10014.685         	4266.228          
28              	10567.157         	4542.464          
29              	11487.944         	3416.593          
30              	13354.630         	4471.313          
31              	13672.720         	3655.161          
32              	12756.119         	3282.661          
33              	11730.697         	4429.459          
34              	11500.500         	4444.108          
35              	10855.950         	4873.111          
36              	10864.320         	5233.054          
37              	11793.478         	5076.102          
38              	12371.062         	3529.599          
FGN             	1390.680          	25741.487         
TSR_ONE         	3198.771          	24921.149         
BIG_ISR         	11067.312         	5618.111          
SMALL_ISR       	11249.377         	5611.833          
TSR_TWO         	2545.849          	24921.149         

[VERTICES]
;Link            	X-Coord           	Y-Coord
J9-TERMINAL     	11335.177         	5318.855          
P007            	7551.581          	22008.115         
P007            	6346.187          	23598.565         

[LABELS]
;X-Coord             Y-Coord             Label & Anchor Node

[BACKDROP]
  DIMENSIONS  	2108.405          	2755.301          	12659.925         	25724.745         
 UNITS          	None
 FILE           	
 OFFSET         	0.00            	0.00            

[END]
